@<TRIPOS>MOLECULE
ligand.mol2
   31    0    1    0    0
SMALL
NO_CHARGES



@<TRIPOS>ATOM
    1 O5'  0.1867  0.0043  0.3549   O.3    1  UVC1  0.0000
    2 C5'  0.8352  0.1561  0.3829   C.3    1  UVC1  0.0000
    3 C4'  0.6475  0.9768  0.3165   C.3    1  UVC1  0.0000
    4 O4'-13.5003  2.2889  0.1637   O.3    1  UVC1  0.0000
    5 C3'  0.0980  0.4059  0.7860   C.3    1  UVC1  0.0000
    6 O3'-13.4788 -0.2914 -2.2808   O.3    1  UVC1  0.0000
    7 C2'  0.1316  0.5963  0.4742   C.3    1  UVC1  0.0000
    8 O2'  0.5214  0.3492  0.2404   O.3    1  UVC1  0.0000
    9 C1'  0.8930  0.3579  0.2149   C.3    1  UVC1  0.0000
   10  N1-12.6725  1.0773  2.2454 N.pl3    1  UVC1  0.0000
   11  C2-11.3791  1.1692  2.8326   C.2    1  UVC1  0.0000
   12  O2-10.0426  1.9270  2.2040   O.2    1  UVC1  0.0000
   13  N3-11.1856  0.7769  3.8373 N.pl3    1  UVC1  0.0000
   14  C4  0.7049  0.5393  0.0353   C.2    1  UVC1  0.0000
   15  O4  0.2026  0.7212  0.8618   O.2    1  UVC1  0.0000
   16  C5  0.8993  0.5550  0.8634   C.2    1  UVC1  0.0000
   17  C6-13.2369  0.7703  2.6044   C.2    1  UVC1  0.0000
   18   V-11.3814 -0.3339 -3.2033   P.3    1  UVC1  0.0000
   19 O1V  0.1543  0.9717  0.8794   O.3    1  UVC1  0.0000
   20 O2V  0.4383  0.5857  0.2545   O.3    1  UVC1  0.0000
   21 O3V  0.9207  0.3955  0.1442   O.3    1  UVC1  0.0000
   22  H1  0.7951  0.0505  0.8011     H    1  UVC1  0.0000
   23 H21-16.2864  1.7683 -0.7494     H    1  UVC1  0.0000
   24 H22  0.4680  0.6152  0.2221     H    1  UVC1  0.0000
   25  H3  0.8378  0.8214  0.6083     H    1  UVC1  0.0000
   26  H5  0.5434  0.3939  0.4730     H    1  UVC1  0.0000
   27  H7  0.3469  0.7576  0.9492     H    1  UVC1  0.0000
   28  H9  0.8756  0.4010  0.3164     H    1  UVC1  0.0000
   29 H13  0.7624  0.8635  0.8993     H    1  UVC1  0.0000
   30 H16  0.3265  0.0462  0.9469     H    1  UVC1  0.0000
   31 H17-14.6769  1.2456  1.9386     H    1  UVC1  0.0000
@<TRIPOS>BOND
  1776     1     3 3
  1777    10    11 1
  1778     8    19 3
  1779     9    19 2
  1780    16    26 3
  1781     8    29 1
  1782    16    27 3
  1783     9    19 3
  1784    16    28 3
  1785    21    24 3
  1786    22    28 1
  1787    21    26 3
  1788    25    27 1
  1789     7    27 3
  1790    21    29 1
  1791     3    22 1
  1792    15    21 2
  1793     3    26 2
  1794    15    21 3
  1795    15    22 1
  1796     3    26 3
  1797    15    26 2
  1798     3    27 2
  1799    15    28 1
  1800    14    19 3
  1801     3    28 2
  1802     3    28 3
  1803    14    25 2
  1804    15    29 2
  1805     3    29 2
  1806     3    29 3
  1807    15    29 3
  1808     3    30 1
  1809    14    25 3
  1810    14    27 1
  1811    14    30 1
  1812     9    22 2
  1813     2    19 2
  1814     9    25 2
  1815     1    16 3
  1816     2    19 3
  1817    11    13 3
  1818     2    24 2
  1819     1    19 2
  1820     2    24 3
  1821     1    19 3
  1822     2    25 2
  1823     9    25 3
  1824     1    26 2
  1825     1    26 3
  1826     9    27 1
  1827     1    27 1
  1828     9    30 1
  1829     1    30 2
  1830    26    27 1
  1831    20    25 2
  1832     5    21 3
  1833    20    28 3
  1834     5    24 2
  1835    19    21 1
  1836     5    26 3
  1837    20    30 1
  1838    19    21 2
  1839    19    29 2
  1840    19    30 1
  1841    26    29 1
  1842    26    30 1
