@<TRIPOS>MOLECULE
ligand.mol2
   31    0    1    0    0
SMALL
NO_CHARGES



@<TRIPOS>ATOM
    1 O5'      -15.9137    1.3181    0.7753     O.3    1  UVC1  0.0000
    2 C5'      -15.9750    1.1647   -1.3045     C.3    1  UVC1  0.0000
    3 C4'      -14.1831    1.2047   -1.0208     C.3    1  UVC1  0.0000
    4 O4'      -14.1644    2.4012    0.3025     O.3    1  UVC1  0.0000
    5 C3'      -13.6382    0.1475   -0.6785     C.3    1  UVC1  0.0000
    6 O3'      -13.6475   -0.4769   -2.6349     O.3    1  UVC1  0.0000
    7 C2'      -12.3573    0.0578   -0.5206     C.3    1  UVC1  0.0000
    8 O2'      -11.1540    0.3818   -1.3485     O.3    1  UVC1  0.0000
    9 C1'      -12.3127    2.0097    0.7113     C.3    1  UVC1  0.0000
   10  N1      -12.3215    1.5437    2.1559   N.pl3    1  UVC1  0.0000
   11  C2      -11.0046    1.5536    2.9456     C.2    1  UVC1  0.0000
   12  O2      -10.3505    1.7780    1.8485     O.2    1  UVC1  0.0000
   13  N3      -10.7109    0.3355    3.7113   N.pl3    1  UVC1  0.0000
   14  C4      -12.5986    0.8081    4.2097     C.2    1  UVC1  0.0000
   15  O4      -12.6256   -0.0602    6.0511     O.2    1  UVC1  0.0000
   16  C5      -13.8387    0.2460    3.7756     C.2    1  UVC1  0.0000
   17  C6      -13.1396    1.1265    2.6819     C.2    1  UVC1  0.0000
   18   V      -11.4736   -0.3753   -2.7890     P.3    1  UVC1  0.0000
   19 O1V      -11.3564    1.0533   -4.6754     O.3    1  UVC1  0.0000
   20 O2V      -12.4890   -1.1884   -4.4143     O.3    1  UVC1  0.0000
   21 O3V      -10.6455   -1.2117   -2.3744     O.3    1  UVC1  0.0000
   22  H1      -16.2901    0.2702    0.6832       H    1  UVC1  0.0000
   23 H21      -16.2866    2.4976   -1.4557       H    1  UVC1  0.0000
   24 H22      -16.1951    0.8571   -0.9588       H    1  UVC1  0.0000
   25  H3      -13.4937    1.3957   -1.6474       H    1  UVC1  0.0000
   26  H5      -13.5790   -1.0742   -0.4999       H    1  UVC1  0.0000
   27  H7      -11.7076    4.2193   -2.2546       H    1  UVC1  0.0000
   28  H9      -11.2622    2.6715    0.4051       H    1  UVC1  0.0000
   29 H13      -10.4824    0.3771    4.3265       H    1  UVC1  0.0000
   30 H16      -14.0235    0.4186    4.2054       H    1  UVC1  0.0000
   31 H17      -14.7528    0.8543    1.7286       H    1  UVC1  0.0000
