@<TRIPOS>MOLECULE
ligand.mol2
   31    0    1    0    0
SMALL
NO_CHARGES



@<TRIPOS>ATOM
    1 O5'      -15.9137    1.3181    0.7753     O.3    1  UVC1  0.0000
    2 C5'      -15.9750    1.1647   -1.3045     C.3    1  UVC1  0.0000
    3 C4'      -14.5503    1.5811   -0.5131     C.3    1  UVC1  0.0000
    4 O4'      -14.0084    1.6122    0.6647     O.3    1  UVC1  0.0000
    5 C3'      -12.0262    1.8381    0.7776     C.3    1  UVC1  0.0000
    6 O3'      -12.9032   -0.4632   -2.1685     O.3    1  UVC1  0.0000
    7 C2'      -11.6269    0.5958   -0.1158     C.3    1  UVC1  0.0000
    8 O2'      -15.7141    5.4898    0.9701     O.3    1  UVC1  0.0000
    9 C1'      -12.6466    1.4699    0.2234     C.3    1  UVC1  0.0000
   10  N1      -12.6213    1.5600    1.5297   N.pl3    1  UVC1  0.0000
   11  C2      -11.1868    1.5177    2.0704     C.2    1  UVC1  0.0000
   12  O2      -10.3505    1.7780    1.8485     O.2    1  UVC1  0.0000
   13  N3      -10.7109    0.3355    3.7113   N.pl3    1  UVC1  0.0000
   14  C4       -8.0765   -3.1622    4.4606     C.2    1  UVC1  0.0000
   15  O4      -11.6915   -0.5973    5.5672     O.2    1  UVC1  0.0000
   16  C5      -13.0172    0.2037    3.7467     C.2    1  UVC1  0.0000
   17  C6      -13.1396    1.1265    2.6819     C.2    1  UVC1  0.0000
   18   V      -11.0772   -0.1626   -3.3920     P.3    1  UVC1  0.0000
   19 O1V      -11.0053    0.2972   -4.1316     O.3    1  UVC1  0.0000
   20 O2V      -12.4890   -1.1884   -4.4143     O.3    1  UVC1  0.0000
   21 O3V      -10.5920   -1.8600   -3.0865     O.3    1  UVC1  0.0000
   22  H1      -16.2901    0.2702    0.6832       H    1  UVC1  0.0000
   23 H21      -20.7886    7.1690   -3.0722       H    1  UVC1  0.0000
   24 H22      -12.6153    5.0599   -3.0971       H    1  UVC1  0.0000
   25  H3       -9.3056    5.6493   -2.8693       H    1  UVC1  0.0000
   26  H5       -9.9365   -4.9884    0.1412       H    1  UVC1  0.0000
   27  H7      -11.7076    4.2193   -2.2546       H    1  UVC1  0.0000
   28  H9      -12.8348    6.9335   -1.3294       H    1  UVC1  0.0000
   29 H13      -10.4824    0.3771    4.3265       H    1  UVC1  0.0000
   30 H16      -14.0235    0.4186    4.2054       H    1  UVC1  0.0000
   31 H17      -14.7528    0.8543    1.7286       H    1  UVC1  0.0000
@<TRIPOS>BOND
     1     1    22 1
     2     2     3 1
     3     3     4 1
     4     3     4 2
     5     3     4 3
     6     4     9 1
     7     4     9 2
     8     5     7 1
     9     5     7 2
    10     5    10 3
    11     5    11 1
    12     5    11 2
    13     6    18 1
    14     7     9 1
    15     7     9 2
    16     7     9 3
    17     9    10 1
    18     9    10 2
    19     9    10 3
    20    10    11 1
    21    10    17 1
    22    10    17 2
    23    10    17 3
    24    13    29 2
    25    16    17 1
    26    16    17 2
    27    16    17 3
    28    16    30 1
    29    18    20 1
    30    18    20 2
    31    18    21 1
    32    18    21 2
    33    18    21 3
