@<TRIPOS>MOLECULE
ligand.mol2
   31    0    1    0    0
SMALL
NO_CHARGES



@<TRIPOS>ATOM
    1 O5'      -15.5772    0.6005    0.7701     O.3    1  UVC1  0.0000
    2 C5'        0.0918    0.7442    0.6881     C.3    1  UVC1  0.0000
    3 C4'      -14.0041    1.0938   -0.5590     C.3    1  UVC1  0.0000
    4 O4'        0.7132    0.6318    0.5203     O.3    1  UVC1  0.0000
    5 C3'        0.9161    0.3708    0.7320     C.3    1  UVC1  0.0000
    6 O3'        0.6384    0.7620    0.2826     O.3    1  UVC1  0.0000
    7 C2'      -11.6122    0.0821   -0.1002     C.3    1  UVC1  0.0000
    8 O2'        0.3123    0.0313    0.3915     O.3    1  UVC1  0.0000
    9 C1'      -12.1732    1.3026    0.7221     C.3    1  UVC1  0.0000
   10  N1        0.7698    0.4402    0.7491   N.pl3    1  UVC1  0.0000
   11  C2      -10.8933    0.8811    1.9691     C.2    1  UVC1  0.0000
   12  O2      -10.3345    1.2548    2.0622     O.2    1  UVC1  0.0000
   13  N3        0.5479    0.7940    0.2922   N.pl3    1  UVC1  0.0000
   14  C4        0.9735    0.6092    0.7858     C.2    1  UVC1  0.0000
   15  O4        0.0413    0.9649    0.7759     O.2    1  UVC1  0.0000
   16  C5        0.4772    0.8376    0.0549     C.2    1  UVC1  0.0000
   17  C6        0.7567    0.0492    0.0050     C.2    1  UVC1  0.0000
   18   V      -11.9252   -0.5201   -2.4471     P.3    1  UVC1  0.0000
   19 O1V        0.7767    0.5601    0.3875     O.3    1  UVC1  0.0000
   20 O2V      -11.9423   -1.8732   -4.6846     O.3    1  UVC1  0.0000
   21 O3V        0.3504    0.7075    0.6431     O.3    1  UVC1  0.0000
   22  H1      -16.8795    0.4325    0.5969       H    1  UVC1  0.0000
   23 H21      -15.9844    1.8115   -1.4767       H    1  UVC1  0.0000
   24 H22        0.0131    0.1587    0.8327       H    1  UVC1  0.0000
   25  H3        0.3378    0.6606    0.1356       H    1  UVC1  0.0000
   26  H5        0.9690    0.7151    0.6540       H    1  UVC1  0.0000
   27  H7        0.9890    0.9430    0.6144       H    1  UVC1  0.0000
   28  H9        0.7332    0.5387    0.9836       H    1  UVC1  0.0000
   29 H13        0.5480    0.5199    0.0954       H    1  UVC1  0.0000
   30 H16        0.2217    0.2615    0.1453       H    1  UVC1  0.0000
   31 H17      -14.6824    0.4454    1.7913       H    1  UVC1  0.0000
@<TRIPOS>BOND
   980     2    17 3
   981     2    24 2
   982     2    24 3
   983     2    25 2
   984     2    25 3
   985     2    28 2
   986     4    24 1
   987     4    25 2
   988     4    25 3
   989     5    15 3
   990     5    27 3
   991     6    24 1
   992     6    26 3
   993     6    27 2
   994     6    27 3
   995     7     9 1
   996     8    15 2
   997     8    15 3
   998     8    24 2
   999     8    24 3
  1000     8    26 1
  1001     8    28 1
  1002     8    29 2
  1003    10    27 2
  1004    10    27 3
  1005    13    24 1
  1006    13    26 2
  1007    13    26 3
  1008    13    27 2
  1009    13    27 3
  1010    13    30 2
  1011    14    24 1
  1012    14    30 1
  1013    15    17 1
  1014    15    26 1
  1015    15    27 1
  1016    15    29 1
  1017    15    30 1
  1018    16    24 1
  1019    16    28 1
  1020    16    30 2
  1021    16    30 3
  1022    17    24 1
  1023    17    27 1
  1024    17    28 1
  1025    17    30 3
  1026    19    24 1
  1027    19    25 2
  1028    19    25 3
  1029    19    27 3
  1030    19    28 2
  1031    21    25 3
  1032    21    26 2
  1033    21    28 2
  1034    21    28 3
  1035    21    29 2
  1036    27    28 1
