@<TRIPOS>MOLECULE
ligand.mol2
   31    0    1    0    0
SMALL
NO_CHARGES



@<TRIPOS>ATOM
    1 O5'      -15.6027    0.9899    0.2513     O.3    1  UVC1  0.0000
    2 C5'      -15.7741    1.1143   -0.8936     C.3    1  UVC1  0.0000
    3 C4'      -13.8760    1.2357   -1.2290     C.3    1  UVC1  0.0000
    4 O4'      -14.0084    1.6122    0.6647     O.3    1  UVC1  0.0000
    5 C3'      -13.1979    0.0852   -0.7117     C.3    1  UVC1  0.0000
    6 O3'      -12.9032   -0.4632   -2.1685     O.3    1  UVC1  0.0000
    7 C2'      -11.5503    0.7114   -0.5992     C.3    1  UVC1  0.0000
    8 O2'      -11.2726    0.8373   -1.2281     O.3    1  UVC1  0.0000
    9 C1'      -12.3127    2.0097    0.7113     C.3    1  UVC1  0.0000
   10  N1      -12.3215    1.5437    2.1559   N.pl3    1  UVC1  0.0000
   11  C2      -10.8075    1.4392    2.0927     C.2    1  UVC1  0.0000
   12  O2       -9.9227    1.1647    1.7949     O.2    1  UVC1  0.0000
   13  N3      -11.6683    0.9972    3.7103   N.pl3    1  UVC1  0.0000
   14  C4      -12.5825   -0.0488    4.2153     C.2    1  UVC1  0.0000
   15  O4      -11.6915   -0.5973    5.5672     O.2    1  UVC1  0.0000
   16  C5      -13.0172    0.2037    3.7467     C.2    1  UVC1  0.0000
   17  C6      -13.8410    0.6359    2.5204     C.2    1  UVC1  0.0000
   18   V      -11.0772   -0.1626   -3.3920     P.3    1  UVC1  0.0000
   19 O1V      -11.0053    0.2972   -4.1316     O.3    1  UVC1  0.0000
   20 O2V      -12.4890   -1.1884   -4.4143     O.3    1  UVC1  0.0000
   21 O3V      -10.6455   -1.2117   -2.3744     O.3    1  UVC1  0.0000
   22  H1      -16.2901    0.2702    0.6832       H    1  UVC1  0.0000
   23 H21      -20.7886    7.1690   -3.0722       H    1  UVC1  0.0000
   24 H22      -16.1951    0.8571   -0.9588       H    1  UVC1  0.0000
   25  H3      -13.4937    1.3957   -1.6474       H    1  UVC1  0.0000
   26  H5      -13.5790   -1.0742   -0.4999       H    1  UVC1  0.0000
   27  H7      -11.7076    4.2193   -2.2546       H    1  UVC1  0.0000
   28  H9      -12.8348    6.9335   -1.3294       H    1  UVC1  0.0000
   29 H13      -10.4824    0.3771    4.3265       H    1  UVC1  0.0000
   30 H16      -14.0235    0.4186    4.2054       H    1  UVC1  0.0000
   31 H17      -14.7528    0.8543    1.7286       H    1  UVC1  0.0000
