@<TRIPOS>MOLECULE
ligand.mol2
   31    0    1    0    0
SMALL
NO_CHARGES



@<TRIPOS>ATOM
    1 O5'      -15.9137    1.3181    0.7753     O.3    1  UVC1  0.0000
    2 C5'      -15.9799    1.4879   -0.6192     C.3    1  UVC1  0.0000
    3 C4'      -14.4278    1.1630   -0.9487     C.3    1  UVC1  0.0000
    4 O4'      -13.7556    1.6684    0.5257     O.3    1  UVC1  0.0000
    5 C3'      -12.8994   -0.1627   -0.9488     C.3    1  UVC1  0.0000
    6 O3'      -13.6475   -0.4769   -2.6349     O.3    1  UVC1  0.0000
    7 C2'      -12.3573    0.0578   -0.5206     C.3    1  UVC1  0.0000
    8 O2'      -10.9852    1.1902   -1.8794     O.3    1  UVC1  0.0000
    9 C1'      -12.3127    2.0097    0.7113     C.3    1  UVC1  0.0000
   10  N1      -12.3215    1.5437    2.1559   N.pl3    1  UVC1  0.0000
   11  C2      -11.0046    1.5536    2.9456     C.2    1  UVC1  0.0000
   12  O2      -10.3505    1.7780    1.8485     O.2    1  UVC1  0.0000
   13  N3      -10.7109    0.3355    3.7113   N.pl3    1  UVC1  0.0000
   14  C4      -12.5825   -0.0488    4.2153     C.2    1  UVC1  0.0000
   15  O4      -11.6915   -0.5973    5.5672     O.2    1  UVC1  0.0000
   16  C5      -13.0172    0.2037    3.7467     C.2    1  UVC1  0.0000
   17  C6      -13.8410    0.6359    2.5204     C.2    1  UVC1  0.0000
   18   V      -11.0772   -0.1626   -3.3920     P.3    1  UVC1  0.0000
   19 O1V      -11.0207    1.1744   -4.7012     O.3    1  UVC1  0.0000
   20 O2V      -12.0783   -1.8108   -4.2847     O.3    1  UVC1  0.0000
   21 O3V      -10.6455   -1.2117   -2.3744     O.3    1  UVC1  0.0000
   22  H1      -16.2901    0.2702    0.6832       H    1  UVC1  0.0000
   23 H21      -20.7886    7.1690   -3.0722       H    1  UVC1  0.0000
   24 H22      -12.6153    5.0599   -3.0971       H    1  UVC1  0.0000
   25  H3      -13.4937    1.3957   -1.6474       H    1  UVC1  0.0000
   26  H5      -10.7336   -3.1290    1.4226       H    1  UVC1  0.0000
   27  H7      -11.7076    4.2193   -2.2546       H    1  UVC1  0.0000
   28  H9      -11.2622    2.6715    0.4051       H    1  UVC1  0.0000
   29 H13      -10.4824    0.3771    4.3265       H    1  UVC1  0.0000
   30 H16      -14.0235    0.4186    4.2054       H    1  UVC1  0.0000
   31 H17      -14.7528    0.8543    1.7286       H    1  UVC1  0.0000
