@<TRIPOS>MOLECULE
ligand.mol2
   31    0    1    0    0
SMALL
NO_CHARGES



@<TRIPOS>ATOM
    1 O5'      -15.6514    1.0996    0.2280     O.3    1  UVC1  0.0000
    2 C5'      -15.2982    1.0379   -0.9925     C.3    1  UVC1  0.0000
    3 C4'      -14.3796    1.5422   -1.2616     C.3    1  UVC1  0.0000
    4 O4'      -13.9486    1.7877    0.4099     O.3    1  UVC1  0.0000
    5 C3'      -13.1979    0.0852   -0.7117     C.3    1  UVC1  0.0000
    6 O3'      -13.5465   -0.5635   -1.9953     O.3    1  UVC1  0.0000
    7 C2'      -12.1415    0.8674   -0.1302     C.3    1  UVC1  0.0000
    8 O2'      -14.4093    2.8939    0.1807     O.3    1  UVC1  0.0000
    9 C1'      -12.6466    1.4699    0.2234     C.3    1  UVC1  0.0000
   10  N1      -12.4433    0.8075    1.4839   N.pl3    1  UVC1  0.0000
   11  C2      -11.4249    1.5017    2.5162     C.2    1  UVC1  0.0000
   12  O2      -10.3521    1.3652    2.2938     O.2    1  UVC1  0.0000
   13  N3      -11.4834    0.3524    4.0375   N.pl3    1  UVC1  0.0000
   14  C4      -12.0030    0.3364    4.3926     C.2    1  UVC1  0.0000
   15  O4      -12.1079   -0.3393    5.7330     O.2    1  UVC1  0.0000
   16  C5      -13.0513    0.3829    3.2522     C.2    1  UVC1  0.0000
   17  C6      -13.7523    0.7834    2.0634     C.2    1  UVC1  0.0000
   18   V      -11.9127   -0.0884   -2.6429     P.3    1  UVC1  0.0000
   19 O1V      -11.4674    0.7947   -4.2735     O.3    1  UVC1  0.0000
   20 O2V      -12.0783   -1.8108   -4.2847     O.3    1  UVC1  0.0000
   21 O3V      -10.5920   -1.8600   -3.0865     O.3    1  UVC1  0.0000
   22  H1      -16.2901    0.2702    0.6832       H    1  UVC1  0.0000
   23 H21      -16.2866    2.4976   -1.4557       H    1  UVC1  0.0000
   24 H22      -16.1951    0.8571   -0.9588       H    1  UVC1  0.0000
   25  H3      -13.4937    1.3957   -1.6474       H    1  UVC1  0.0000
   26  H5      -13.5790   -1.0742   -0.4999       H    1  UVC1  0.0000
   27  H7      -11.7076    4.2193   -2.2546       H    1  UVC1  0.0000
   28  H9      -11.2622    2.6715    0.4051       H    1  UVC1  0.0000
   29 H13      -10.4824    0.3771    4.3265       H    1  UVC1  0.0000
   30 H16      -14.0235    0.4186    4.2054       H    1  UVC1  0.0000
   31 H17      -14.7528    0.8543    1.7286       H    1  UVC1  0.0000
