@<TRIPOS>MOLECULE
ligand.mol2
   31    0    1    0    0
SMALL
NO_CHARGES



@<TRIPOS>ATOM
    1 O5'      -15.5772    0.6005    0.7701     O.3    1  UVC1  0.0000
    2 C5'      -15.8891    1.6726   -0.4542     C.3    1  UVC1  0.0000
    3 C4'      -14.0041    1.0938   -0.5590     C.3    1  UVC1  0.0000
    4 O4'      -13.7954    2.1734   -0.1090     O.3    1  UVC1  0.0000
    5 C3'        0.7327    0.4930    0.7475     C.3    1  UVC1  0.0000
    6 O3'        0.6384    0.7620    0.2826     O.3    1  UVC1  0.0000
    7 C2'      -11.6122    0.0821   -0.1002     C.3    1  UVC1  0.0000
    8 O2'      -10.7279    1.2911   -1.1571     O.3    1  UVC1  0.0000
    9 C1'      -12.1732    1.3026    0.7221     C.3    1  UVC1  0.0000
   10  N1        0.7698    0.4402    0.7491   N.pl3    1  UVC1  0.0000
   11  C2      -10.8933    0.8811    1.9691     C.2    1  UVC1  0.0000
   12  O2      -10.3345    1.2548    2.0622     O.2    1  UVC1  0.0000
   13  N3      -11.6205    1.0404    3.7239   N.pl3    1  UVC1  0.0000
   14  C4      -12.0192    0.2599    4.2844     C.2    1  UVC1  0.0000
   15  O4        0.0413    0.9649    0.7759     O.2    1  UVC1  0.0000
   16  C5        0.4772    0.8376    0.0549     C.2    1  UVC1  0.0000
   17  C6        0.7567    0.0492    0.0050     C.2    1  UVC1  0.0000
   18   V      -11.9252   -0.5201   -2.4471     P.3    1  UVC1  0.0000
   19 O1V      -11.1766    0.3062   -4.6973     O.3    1  UVC1  0.0000
   20 O2V      -11.9423   -1.8732   -4.6846     O.3    1  UVC1  0.0000
   21 O3V        0.3504    0.7075    0.6431     O.3    1  UVC1  0.0000
   22  H1      -16.8795    0.4325    0.5969       H    1  UVC1  0.0000
   23 H21        0.8470    0.8422    0.3888       H    1  UVC1  0.0000
   24 H22      -16.3643    0.3138   -1.3806       H    1  UVC1  0.0000
   25  H3        0.3378    0.6606    0.1356       H    1  UVC1  0.0000
   26  H5      -14.3159   -0.7995   -0.3077       H    1  UVC1  0.0000
   27  H7        0.9890    0.9430    0.6144       H    1  UVC1  0.0000
   28  H9      -11.4671    2.0925    0.2467       H    1  UVC1  0.0000
   29 H13        0.2320    0.4159    0.5540       H    1  UVC1  0.0000
   30 H16      -13.9321   -0.0922    3.8085       H    1  UVC1  0.0000
   31 H17      -14.6824    0.4454    1.7913       H    1  UVC1  0.0000
