@<TRIPOS>MOLECULE
ligand.mol2
   31    0    1    0    0
SMALL
NO_CHARGES



@<TRIPOS>ATOM
    1 O5'      -15.5772    0.6005    0.7701     O.3    1  UVC1  0.0000
    2 C5'        0.0918    0.7442    0.6881     C.3    1  UVC1  0.0000
    3 C4'      -14.0041    1.0938   -0.5590     C.3    1  UVC1  0.0000
    4 O4'        0.7132    0.6318    0.5203     O.3    1  UVC1  0.0000
    5 C3'        0.9161    0.3708    0.7320     C.3    1  UVC1  0.0000
    6 O3'        0.6384    0.7620    0.2826     O.3    1  UVC1  0.0000
    7 C2'      -11.6122    0.0821   -0.1002     C.3    1  UVC1  0.0000
    8 O2'        0.3123    0.0313    0.3915     O.3    1  UVC1  0.0000
    9 C1'      -12.1732    1.3026    0.7221     C.3    1  UVC1  0.0000
   10  N1        0.7698    0.4402    0.7491   N.pl3    1  UVC1  0.0000
   11  C2      -10.8933    0.8811    1.9691     C.2    1  UVC1  0.0000
   12  O2        0.8523    0.7980    0.1569     O.2    1  UVC1  0.0000
   13  N3        0.5479    0.7940    0.2922   N.pl3    1  UVC1  0.0000
   14  C4        0.9735    0.6092    0.7858     C.2    1  UVC1  0.0000
   15  O4        0.0413    0.9649    0.7759     O.2    1  UVC1  0.0000
   16  C5        0.4772    0.8376    0.0549     C.2    1  UVC1  0.0000
   17  C6        0.7567    0.0492    0.0050     C.2    1  UVC1  0.0000
   18   V      -11.9252   -0.5201   -2.4471     P.3    1  UVC1  0.0000
   19 O1V        0.7767    0.5601    0.3875     O.3    1  UVC1  0.0000
   20 O2V      -11.9423   -1.8732   -4.6846     O.3    1  UVC1  0.0000
   21 O3V        0.3504    0.7075    0.6431     O.3    1  UVC1  0.0000
   22  H1      -16.8795    0.4325    0.5969       H    1  UVC1  0.0000
   23 H21      -15.9844    1.8115   -1.4767       H    1  UVC1  0.0000
   24 H22        0.4509    0.9593    0.8409       H    1  UVC1  0.0000
   25  H3        0.8400    0.9727    0.6257       H    1  UVC1  0.0000
   26  H5        0.9690    0.7151    0.6540       H    1  UVC1  0.0000
   27  H7        0.9890    0.9430    0.6144       H    1  UVC1  0.0000
   28  H9        0.7332    0.5387    0.9836       H    1  UVC1  0.0000
   29 H13        0.5480    0.5199    0.0954       H    1  UVC1  0.0000
   30 H16        0.8525    0.3240    0.0987       H    1  UVC1  0.0000
   31 H17      -14.6824    0.4454    1.7913       H    1  UVC1  0.0000
@<TRIPOS>BOND
  1561     2    17 3
  1562     2    28 2
  1563     2    30 1
  1564     4    24 2
  1565     4    24 3
  1566     4    30 2
  1567     4    30 3
  1568     5    15 3
  1569     5    25 2
  1570     5    25 3
  1571     5    27 3
  1572     5    30 2
  1573     5    30 3
  1574     6    24 2
  1575     6    26 3
  1576     6    27 2
  1577     6    27 3
  1578     6    30 2
  1579     6    30 3
  1580     7     9 1
  1581     8    12 3
  1582     8    15 2
  1583     8    15 3
  1584     8    24 1
  1585     8    26 1
  1586     8    28 1
  1587     8    29 2
  1588    10    24 2
  1589    10    25 2
  1590    10    25 3
  1591    10    27 2
  1592    10    27 3
  1593    12    15 2
  1594    12    15 3
  1595    12    25 3
  1596    12    26 2
  1597    12    26 3
  1598    12    27 3
  1599    12    28 1
  1600    12    30 3
  1601    13    24 2
  1602    13    24 3
  1603    13    26 2
  1604    13    26 3
  1605    13    27 2
  1606    13    27 3
  1607    13    30 2
  1608    13    30 3
  1609    14    24 2
  1610    14    24 3
  1611    15    17 1
  1612    15    26 1
  1613    15    27 1
  1614    15    29 1
  1615    16    25 2
  1616    16    28 1
  1617    16    30 2
  1618    16    30 3
  1619    17    25 1
  1620    17    27 1
  1621    17    28 1
  1622    19    25 3
  1623    19    27 3
  1624    19    28 2
  1625    21    25 2
  1626    21    25 3
  1627    21    26 2
  1628    21    28 2
  1629    21    28 3
  1630    21    29 2
  1631    24    26 1
  1632    24    27 1
  1633    26    30 1
  1634    27    28 1
