@<TRIPOS>MOLECULE
ligand.mol2
   31    0    1    0    0
SMALL
NO_CHARGES



@<TRIPOS>ATOM
    1 O5'-16.0406  0.8987  0.5499   O.3    1  UVC1  0.0000
    2 C5'-16.0352  1.0551 -0.5235   C.3    1  UVC1  0.0000
    3 C4'-14.4685  0.9512 -1.1836   C.3    1  UVC1  0.0000
    4 O4'-13.5003  2.2889  0.1637   O.3    1  UVC1  0.0000
    5 C3'-12.9904 -0.1303 -0.6347   C.3    1  UVC1  0.0000
    6 O3'-13.4788 -0.2914 -2.2808   O.3    1  UVC1  0.0000
    7 C2'-11.7775  0.4242 -0.8521   C.3    1  UVC1  0.0000
    8 O2'-11.6038  1.2933 -1.1410   O.3    1  UVC1  0.0000
    9 C1'-12.2505  2.1271  0.4816   C.3    1  UVC1  0.0000
   10  N1-12.6725  1.0773  2.2454 N.pl3    1  UVC1  0.0000
   11  C2-11.3791  1.1692  2.8326   C.2    1  UVC1  0.0000
   12  O2-10.0426  1.9270  2.2040   O.2    1  UVC1  0.0000
   13  N3-11.1856  0.7769  3.8373 N.pl3    1  UVC1  0.0000
   14  C4-12.5018  0.2415  4.3667   C.2    1  UVC1  0.0000
   15  O4-11.9060 -0.1896  5.4480   O.2    1  UVC1  0.0000
   16  C5-13.6833  0.5169  3.6935   C.2    1  UVC1  0.0000
   17  C6-13.2369  0.7703  2.6044   C.2    1  UVC1  0.0000
   18   V-11.3814 -0.3339 -3.2033   P.3    1  UVC1  0.0000
   19 O1V-11.0721  0.5150 -4.6250   O.3    1  UVC1  0.0000
   20 O2V-12.5281 -1.7824 -3.8610   O.3    1  UVC1  0.0000
   21 O3V-10.6875 -1.5338 -2.5768   O.3    1  UVC1  0.0000
   22  H1-16.1249 -0.0588  0.4155     H    1  UVC1  0.0000
   23 H21-16.2864  1.7683 -0.7494     H    1  UVC1  0.0000
   24 H22-15.8992  0.7444 -1.4482     H    1  UVC1  0.0000
   25  H3-13.8979  1.8863 -1.7445     H    1  UVC1  0.0000
   26  H5-14.1397 -1.1383 -0.5356     H    1  UVC1  0.0000
   27  H7-11.6608 -0.8951 -0.4315     H    1  UVC1  0.0000
   28  H9-11.7994  2.7656  0.6310     H    1  UVC1  0.0000
   29 H13-10.6628  0.2871  4.2222     H    1  UVC1  0.0000
   30 H16-14.3165  0.3417  3.9384     H    1  UVC1  0.0000
   31 H17-14.6769  1.2456  1.9386     H    1  UVC1  0.0000
