@<TRIPOS>MOLECULE
ligand.mol2
   31    0    1    0    0
SMALL
NO_CHARGES



@<TRIPOS>ATOM
    1 O5'      -13.4773   -1.2383   -2.6817     O.3    1  UVC1  0.0000
    2 C5'      -15.9432    1.2430   -0.7558     C.3    1  UVC1  0.0000
    3 C4'      -14.5503    1.5811   -0.5131     C.3    1  UVC1  0.0000
    4 O4'      -13.7556    1.6684    0.5257     O.3    1  UVC1  0.0000
    5 C3'      -13.4087   -0.5685   -0.6925     C.3    1  UVC1  0.0000
    6 O3'      -13.5170   -0.5759   -2.6692     O.3    1  UVC1  0.0000
    7 C2'      -11.7288    0.1863   -0.6767     C.3    1  UVC1  0.0000
    8 O2'      -11.5106    0.4833   -1.5490     O.3    1  UVC1  0.0000
    9 C1'      -12.6466    1.4699    0.2234     C.3    1  UVC1  0.0000
   10  N1      -12.5267    1.0580    1.9269   N.pl3    1  UVC1  0.0000
   11  C2      -11.1868    1.5177    2.0704     C.2    1  UVC1  0.0000
   12  O2      -10.2228    1.5938    1.9315     O.2    1  UVC1  0.0000
   13  N3      -10.7109    0.3355    3.7113   N.pl3    1  UVC1  0.0000
   14  C4       -8.0765   -3.1622    4.4606     C.2    1  UVC1  0.0000
   15  O4      -11.6915   -0.5973    5.5672     O.2    1  UVC1  0.0000
   16  C5      -13.0172    0.2037    3.7467     C.2    1  UVC1  0.0000
   17  C6      -13.1396    1.1265    2.6819     C.2    1  UVC1  0.0000
   18   V      -11.0772   -0.1626   -3.3920     P.3    1  UVC1  0.0000
   19 O1V      -11.0207    1.1744   -4.7012     O.3    1  UVC1  0.0000
   20 O2V      -12.0783   -1.8108   -4.2847     O.3    1  UVC1  0.0000
   21 O3V      -10.6455   -1.2117   -2.3744     O.3    1  UVC1  0.0000
   22  H1      -16.2901    0.2702    0.6832       H    1  UVC1  0.0000
   23 H21      -24.6587    3.5607   -0.0057       H    1  UVC1  0.0000
   24 H22      -12.6153    5.0599   -3.0971       H    1  UVC1  0.0000
   25  H3      -13.4937    1.3957   -1.6474       H    1  UVC1  0.0000
   26  H5      -13.5790   -1.0742   -0.4999       H    1  UVC1  0.0000
   27  H7      -11.7076    4.2193   -2.2546       H    1  UVC1  0.0000
   28  H9      -12.8348    6.9335   -1.3294       H    1  UVC1  0.0000
   29 H13      -10.4824    0.3771    4.3265       H    1  UVC1  0.0000
   30 H16      -14.0235    0.4186    4.2054       H    1  UVC1  0.0000
   31 H17      -14.7528    0.8543    1.7286       H    1  UVC1  0.0000
@<TRIPOS>BOND
     1     2     3 1
     2     2     3 2
     3     3     4 1
     4     3     4 2
     5     3     4 3
     6     4     9 1
     7     4     9 2
     8     4     9 3
     9     5    26 2
    10     5    26 3
    11     7     8 3
    12     8    18 1
    13     8    18 2
    14    10    11 1
    15    10    11 2
    16    10    17 3
    17    11    12 3
    18    13    29 2
    19    16    17 1
    20    16    17 2
    21    16    17 3
    22    16    30 1
    23    18    19 1
    24    18    19 2
    25    18    19 3
    26    18    20 1
    27    18    21 2
    28    18    21 3
