@<TRIPOS>MOLECULE
ligand.mol2
   31    0    1    0    0
SMALL
NO_CHARGES



@<TRIPOS>ATOM
    1 O5'      -15.5772    0.6005    0.7701     O.3    1  UVC1  0.0000
    2 C5'        0.0918    0.7442    0.6881     C.3    1  UVC1  0.0000
    3 C4'      -14.0041    1.0938   -0.5590     C.3    1  UVC1  0.0000
    4 O4'        0.7132    0.6318    0.5203     O.3    1  UVC1  0.0000
    5 C3'        0.9161    0.3708    0.7320     C.3    1  UVC1  0.0000
    6 O3'        0.6384    0.7620    0.2826     O.3    1  UVC1  0.0000
    7 C2'      -11.6122    0.0821   -0.1002     C.3    1  UVC1  0.0000
    8 O2'        0.3123    0.0313    0.3915     O.3    1  UVC1  0.0000
    9 C1'      -12.1732    1.3026    0.7221     C.3    1  UVC1  0.0000
   10  N1        0.7698    0.4402    0.7491   N.pl3    1  UVC1  0.0000
   11  C2      -10.8933    0.8811    1.9691     C.2    1  UVC1  0.0000
   12  O2        0.8523    0.7980    0.1569     O.2    1  UVC1  0.0000
   13  N3        0.5479    0.7940    0.2922   N.pl3    1  UVC1  0.0000
   14  C4        0.9735    0.6092    0.7858     C.2    1  UVC1  0.0000
   15  O4        0.0413    0.9649    0.7759     O.2    1  UVC1  0.0000
   16  C5        0.4772    0.8376    0.0549     C.2    1  UVC1  0.0000
   17  C6        0.7567    0.0492    0.0050     C.2    1  UVC1  0.0000
   18   V      -11.9252   -0.5201   -2.4471     P.3    1  UVC1  0.0000
   19 O1V        0.7767    0.5601    0.3875     O.3    1  UVC1  0.0000
   20 O2V      -11.9423   -1.8732   -4.6846     O.3    1  UVC1  0.0000
   21 O3V        0.3504    0.7075    0.6431     O.3    1  UVC1  0.0000
   22  H1      -16.8795    0.4325    0.5969       H    1  UVC1  0.0000
   23 H21      -15.9844    1.8115   -1.4767       H    1  UVC1  0.0000
   24 H22        0.0131    0.1587    0.8327       H    1  UVC1  0.0000
   25  H3        0.8400    0.9727    0.6257       H    1  UVC1  0.0000
   26  H5        0.9690    0.7151    0.6540       H    1  UVC1  0.0000
   27  H7        0.9890    0.9430    0.6144       H    1  UVC1  0.0000
   28  H9        0.7332    0.5387    0.9836       H    1  UVC1  0.0000
   29 H13        0.5480    0.5199    0.0954       H    1  UVC1  0.0000
   30 H16      -13.9321   -0.0922    3.8085       H    1  UVC1  0.0000
   31 H17      -14.6824    0.4454    1.7913       H    1  UVC1  0.0000
@<TRIPOS>BOND
  1352     2    17 3
  1353     2    24 2
  1354     2    24 3
  1355     2    28 2
  1356     4    24 1
  1357     5    15 3
  1358     5    25 2
  1359     5    25 3
  1360     5    27 3
  1361     6    24 1
  1362     6    26 3
  1363     6    27 2
  1364     6    27 3
  1365     7     9 1
  1366     8    12 3
  1367     8    15 2
  1368     8    15 3
  1369     8    24 2
  1370     8    24 3
  1371     8    26 1
  1372     8    28 1
  1373     8    29 2
  1374    10    25 2
  1375    10    25 3
  1376    10    27 2
  1377    10    27 3
  1378    12    15 2
  1379    12    15 3
  1380    12    25 3
  1381    12    26 2
  1382    12    26 3
  1383    12    27 3
  1384    12    28 1
  1385    13    24 1
  1386    13    26 2
  1387    13    26 3
  1388    13    27 2
  1389    13    27 3
  1390    14    24 1
  1391    15    17 1
  1392    15    26 1
  1393    15    27 1
  1394    15    29 1
  1395    16    24 1
  1396    16    25 2
  1397    16    28 1
  1398    17    24 1
  1399    17    25 1
  1400    17    27 1
  1401    17    28 1
  1402    19    24 1
  1403    19    25 3
  1404    19    27 3
  1405    19    28 2
  1406    21    25 2
  1407    21    25 3
  1408    21    26 2
  1409    21    28 2
  1410    21    28 3
  1411    21    29 2
  1412    27    28 1
