@<TRIPOS>MOLECULE
ligand.mol2
   31    0    1    0    0
SMALL
NO_CHARGES



@<TRIPOS>ATOM
    1 O5'      -15.5772    0.6005    0.7701     O.3    1  UVC1  0.0000
    2 C5'        0.0918    0.7442    0.6881     C.3    1  UVC1  0.0000
    3 C4'      -14.0041    1.0938   -0.5590     C.3    1  UVC1  0.0000
    4 O4'      -13.7954    2.1734   -0.1090     O.3    1  UVC1  0.0000
    5 C3'        0.9161    0.3708    0.7320     C.3    1  UVC1  0.0000
    6 O3'        0.6384    0.7620    0.2826     O.3    1  UVC1  0.0000
    7 C2'      -11.6122    0.0821   -0.1002     C.3    1  UVC1  0.0000
    8 O2'        0.3123    0.0313    0.3915     O.3    1  UVC1  0.0000
    9 C1'      -12.1732    1.3026    0.7221     C.3    1  UVC1  0.0000
   10  N1        0.7698    0.4402    0.7491   N.pl3    1  UVC1  0.0000
   11  C2      -10.8933    0.8811    1.9691     C.2    1  UVC1  0.0000
   12  O2      -10.3345    1.2548    2.0622     O.2    1  UVC1  0.0000
   13  N3      -11.6205    1.0404    3.7239   N.pl3    1  UVC1  0.0000
   14  C4      -12.0192    0.2599    4.2844     C.2    1  UVC1  0.0000
   15  O4        0.0413    0.9649    0.7759     O.2    1  UVC1  0.0000
   16  C5        0.4772    0.8376    0.0549     C.2    1  UVC1  0.0000
   17  C6        0.7567    0.0492    0.0050     C.2    1  UVC1  0.0000
   18   V      -11.9252   -0.5201   -2.4471     P.3    1  UVC1  0.0000
   19 O1V      -11.1766    0.3062   -4.6973     O.3    1  UVC1  0.0000
   20 O2V      -11.9423   -1.8732   -4.6846     O.3    1  UVC1  0.0000
   21 O3V        0.3504    0.7075    0.6431     O.3    1  UVC1  0.0000
   22  H1      -16.8795    0.4325    0.5969       H    1  UVC1  0.0000
   23 H21      -15.9844    1.8115   -1.4767       H    1  UVC1  0.0000
   24 H22      -16.3643    0.3138   -1.3806       H    1  UVC1  0.0000
   25  H3        0.3378    0.6606    0.1356       H    1  UVC1  0.0000
   26  H5        0.9690    0.7151    0.6540       H    1  UVC1  0.0000
   27  H7        0.9890    0.9430    0.6144       H    1  UVC1  0.0000
   28  H9        0.9384    0.4080    0.5451       H    1  UVC1  0.0000
   29 H13        0.2320    0.4159    0.5540       H    1  UVC1  0.0000
   30 H16        0.0489    0.6968    0.9032       H    1  UVC1  0.0000
   31 H17      -14.6824    0.4454    1.7913       H    1  UVC1  0.0000
@<TRIPOS>BOND
   531     2    17 3
   532     2    25 2
   533     2    25 3
   534     3     4 2
   535     3     4 3
   536     5    15 3
   537     5    27 3
   538     5    29 2
   539     6    26 3
   540     6    27 2
   541     6    27 3
   542     6    28 2
   543     6    28 3
   544     6    29 2
   545     6    30 1
   546     7     9 1
   547     8    15 2
   548     8    15 3
   549     8    26 1
   550     8    30 1
   551    10    27 2
   552    10    27 3
   553    10    29 2
   554    10    29 3
   555    13    14 3
   556    15    17 1
   557    15    26 1
   558    15    27 1
   559    15    29 2
   560    16    29 2
   561    17    27 1
   562    17    28 2
   563    21    25 3
   564    21    26 2
