@<TRIPOS>MOLECULE
ligand.mol2
   31    0    1    0    0
SMALL
NO_CHARGES



@<TRIPOS>ATOM
    1 O5'      -15.6514    1.0996    0.2280     O.3    1  UVC1  0.0000
    2 C5'      -15.9432    1.2430   -0.7558     C.3    1  UVC1  0.0000
    3 C4'      -14.5503    1.5811   -0.5131     C.3    1  UVC1  0.0000
    4 O4'      -13.5041    2.3210    0.7762     O.3    1  UVC1  0.0000
    5 C3'      -13.1979    0.0852   -0.7117     C.3    1  UVC1  0.0000
    6 O3'      -13.5170   -0.5759   -2.6692     O.3    1  UVC1  0.0000
    7 C2'      -11.7288    0.1863   -0.6767     C.3    1  UVC1  0.0000
    8 O2'      -15.7141    5.4898    0.9701     O.3    1  UVC1  0.0000
    9 C1'      -12.6466    1.4699    0.2234     C.3    1  UVC1  0.0000
   10  N1      -12.4433    0.8075    1.4839   N.pl3    1  UVC1  0.0000
   11  C2      -11.1868    1.5177    2.0704     C.2    1  UVC1  0.0000
   12  O2      -10.2228    1.5938    1.9315     O.2    1  UVC1  0.0000
   13  N3      -10.7109    0.3355    3.7113   N.pl3    1  UVC1  0.0000
   14  C4       -8.0765   -3.1622    4.4606     C.2    1  UVC1  0.0000
   15  O4      -11.6915   -0.5973    5.5672     O.2    1  UVC1  0.0000
   16  C5      -13.0172    0.2037    3.7467     C.2    1  UVC1  0.0000
   17  C6      -13.8410    0.6359    2.5204     C.2    1  UVC1  0.0000
   18   V      -15.1835   -1.0896   -6.6539     P.3    1  UVC1  0.0000
   19 O1V      -11.4674    0.7947   -4.2735     O.3    1  UVC1  0.0000
   20 O2V      -12.4890   -1.1884   -4.4143     O.3    1  UVC1  0.0000
   21 O3V      -10.6455   -1.2117   -2.3744     O.3    1  UVC1  0.0000
   22  H1      -16.2901    0.2702    0.6832       H    1  UVC1  0.0000
   23 H21      -20.7886    7.1690   -3.0722       H    1  UVC1  0.0000
   24 H22      -12.6153    5.0599   -3.0971       H    1  UVC1  0.0000
   25  H3      -13.4937    1.3957   -1.6474       H    1  UVC1  0.0000
   26  H5      -10.7336   -3.1290    1.4226       H    1  UVC1  0.0000
   27  H7      -11.7076    4.2193   -2.2546       H    1  UVC1  0.0000
   28  H9      -12.8348    6.9335   -1.3294       H    1  UVC1  0.0000
   29 H13      -10.4824    0.3771    4.3265       H    1  UVC1  0.0000
   30 H16      -14.7407    2.2904    5.6978       H    1  UVC1  0.0000
   31 H17      -14.7528    0.8543    1.7286       H    1  UVC1  0.0000
@<TRIPOS>BOND
     1     1     2 2
     2     1     2 3
     3     1     3 1
     4     1     3 2
     5     2     3 1
     6     2     3 2
     7     4     9 1
     8     4     9 2
     9     4     9 3
    10     5     7 1
    11     5     7 2
    12     5     9 1
    13     9    10 1
    14     9    10 2
    15    10    11 1
    16    10    17 1
    17    11    12 3
    18    13    29 2
    19    16    17 1
    20    16    17 2
    21    17    31 1
