@<TRIPOS>MOLECULE
ligand.mol2
   31    0    1    0    0
SMALL
NO_CHARGES



@<TRIPOS>ATOM
    1 O5'      -15.5772    0.6005    0.7701     O.3    1  UVC1  0.0000
    2 C5'        0.0918    0.7442    0.6881     C.3    1  UVC1  0.0000
    3 C4'      -14.0041    1.0938   -0.5590     C.3    1  UVC1  0.0000
    4 O4'        0.7132    0.6318    0.5203     O.3    1  UVC1  0.0000
    5 C3'        0.9161    0.3708    0.7320     C.3    1  UVC1  0.0000
    6 O3'        0.6384    0.7620    0.2826     O.3    1  UVC1  0.0000
    7 C2'      -11.6122    0.0821   -0.1002     C.3    1  UVC1  0.0000
    8 O2'        0.3123    0.0313    0.3915     O.3    1  UVC1  0.0000
    9 C1'      -12.1732    1.3026    0.7221     C.3    1  UVC1  0.0000
   10  N1        0.7698    0.4402    0.7491   N.pl3    1  UVC1  0.0000
   11  C2      -10.8933    0.8811    1.9691     C.2    1  UVC1  0.0000
   12  O2        0.8523    0.7980    0.1569     O.2    1  UVC1  0.0000
   13  N3        0.5479    0.7940    0.2922   N.pl3    1  UVC1  0.0000
   14  C4        0.9735    0.6092    0.7858     C.2    1  UVC1  0.0000
   15  O4        0.0413    0.9649    0.7759     O.2    1  UVC1  0.0000
   16  C5        0.4772    0.8376    0.0549     C.2    1  UVC1  0.0000
   17  C6        0.7567    0.0492    0.0050     C.2    1  UVC1  0.0000
   18   V      -11.9252   -0.5201   -2.4471     P.3    1  UVC1  0.0000
   19 O1V        0.7767    0.5601    0.3875     O.3    1  UVC1  0.0000
   20 O2V      -11.9423   -1.8732   -4.6846     O.3    1  UVC1  0.0000
   21 O3V        0.3504    0.7075    0.6431     O.3    1  UVC1  0.0000
   22  H1      -16.8795    0.4325    0.5969       H    1  UVC1  0.0000
   23 H21      -15.9844    1.8115   -1.4767       H    1  UVC1  0.0000
   24 H22        0.0131    0.1587    0.8327       H    1  UVC1  0.0000
   25  H3        0.8400    0.9727    0.6257       H    1  UVC1  0.0000
   26  H5        0.9690    0.7151    0.6540       H    1  UVC1  0.0000
   27  H7        0.9890    0.9430    0.6144       H    1  UVC1  0.0000
   28  H9        0.7332    0.5387    0.9836       H    1  UVC1  0.0000
   29 H13        0.5480    0.5199    0.0954       H    1  UVC1  0.0000
   30 H16        0.8525    0.3240    0.0987       H    1  UVC1  0.0000
   31 H17      -14.6824    0.4454    1.7913       H    1  UVC1  0.0000
@<TRIPOS>BOND
  1487     2    17 3
  1488     2    24 2
  1489     2    24 3
  1490     2    28 2
  1491     2    30 1
  1492     4    24 1
  1493     4    30 2
  1494     4    30 3
  1495     5    15 3
  1496     5    25 2
  1497     5    25 3
  1498     5    27 3
  1499     5    30 2
  1500     5    30 3
  1501     6    24 1
  1502     6    26 3
  1503     6    27 2
  1504     6    27 3
  1505     6    30 2
  1506     6    30 3
  1507     7     9 1
  1508     8    12 3
  1509     8    15 2
  1510     8    15 3
  1511     8    24 2
  1512     8    24 3
  1513     8    26 1
  1514     8    28 1
  1515     8    29 2
  1516    10    25 2
  1517    10    25 3
  1518    10    27 2
  1519    10    27 3
  1520    12    15 2
  1521    12    15 3
  1522    12    25 3
  1523    12    26 2
  1524    12    26 3
  1525    12    27 3
  1526    12    28 1
  1527    12    30 3
  1528    13    24 1
  1529    13    26 2
  1530    13    26 3
  1531    13    27 2
  1532    13    27 3
  1533    13    30 2
  1534    13    30 3
  1535    14    24 1
  1536    15    17 1
  1537    15    26 1
  1538    15    27 1
  1539    15    29 1
  1540    16    24 1
  1541    16    25 2
  1542    16    28 1
  1543    16    30 2
  1544    16    30 3
  1545    17    24 1
  1546    17    25 1
  1547    17    27 1
  1548    17    28 1
  1549    19    24 1
  1550    19    25 3
  1551    19    27 3
  1552    19    28 2
  1553    21    25 2
  1554    21    25 3
  1555    21    26 2
  1556    21    28 2
  1557    21    28 3
  1558    21    29 2
  1559    26    30 1
  1560    27    28 1
