@<TRIPOS>MOLECULE
ligand.mol2
   31    0    1    0    0
SMALL
NO_CHARGES



@<TRIPOS>ATOM
    1 O5'  0.1867  0.0043  0.3549   O.3    1  UVC1  0.0000
    2 C5'  0.8352  0.1561  0.3829   C.3    1  UVC1  0.0000
    3 C4'  0.6475  0.9768  0.3165   C.3    1  UVC1  0.0000
    4 O4'-13.5003  2.2889  0.1637   O.3    1  UVC1  0.0000
    5 C3'  0.0980  0.4059  0.7860   C.3    1  UVC1  0.0000
    6 O3'-13.4788 -0.2914 -2.2808   O.3    1  UVC1  0.0000
    7 C2'  0.1316  0.5963  0.4742   C.3    1  UVC1  0.0000
    8 O2'  0.5214  0.3492  0.2404   O.3    1  UVC1  0.0000
    9 C1'  0.8930  0.3579  0.2149   C.3    1  UVC1  0.0000
   10  N1-12.6725  1.0773  2.2454 N.pl3    1  UVC1  0.0000
   11  C2-11.3791  1.1692  2.8326   C.2    1  UVC1  0.0000
   12  O2-10.0426  1.9270  2.2040   O.2    1  UVC1  0.0000
   13  N3-11.1856  0.7769  3.8373 N.pl3    1  UVC1  0.0000
   14  C4  0.7049  0.5393  0.0353   C.2    1  UVC1  0.0000
   15  O4  0.2026  0.7212  0.8618   O.2    1  UVC1  0.0000
   16  C5  0.8993  0.5550  0.8634   C.2    1  UVC1  0.0000
   17  C6-13.2369  0.7703  2.6044   C.2    1  UVC1  0.0000
   18   V-11.3814 -0.3339 -3.2033   P.3    1  UVC1  0.0000
   19 O1V  0.1543  0.9717  0.8794   O.3    1  UVC1  0.0000
   20 O2V  0.4383  0.5857  0.2545   O.3    1  UVC1  0.0000
   21 O3V  0.9207  0.3955  0.1442   O.3    1  UVC1  0.0000
   22  H1  0.7951  0.0505  0.8011     H    1  UVC1  0.0000
   23 H21-16.2864  1.7683 -0.7494     H    1  UVC1  0.0000
   24 H22  0.4680  0.6152  0.2221     H    1  UVC1  0.0000
   25  H3  0.8506  0.8067  0.9670     H    1  UVC1  0.0000
   26  H5  0.5434  0.3939  0.4730     H    1  UVC1  0.0000
   27  H7  0.3469  0.7576  0.9492     H    1  UVC1  0.0000
   28  H9  0.8756  0.4010  0.3164     H    1  UVC1  0.0000
   29 H13  0.7624  0.8635  0.8993     H    1  UVC1  0.0000
   30 H16  0.3265  0.0462  0.9469     H    1  UVC1  0.0000
   31 H17-14.6769  1.2456  1.9386     H    1  UVC1  0.0000
@<TRIPOS>BOND
  1712     1     3 3
  1713    11    13 3
  1714     1    16 3
  1715    19    21 1
  1716     1    19 2
  1717    20    28 3
  1718    19    21 2
  1719    20    30 1
  1720     2    19 2
  1721     2    19 3
  1722     1    19 3
  1723    19    29 2
  1724     1    26 2
  1725     1    26 3
  1726    19    30 1
  1727     1    27 1
  1728     2    24 2
  1729     2    24 3
  1730     1    30 2
  1731    10    11 1
  1732     9    19 2
  1733     8    19 3
  1734     9    19 3
  1735     8    25 1
  1736     9    22 2
  1737     8    29 1
  1738     9    27 1
  1739     9    30 1
  1740     7    27 3
  1741    26    27 1
  1742    21    24 3
  1743    22    28 1
  1744     5    21 3
  1745     3    22 1
  1746    21    25 1
  1747    26    29 1
  1748    26    30 1
  1749    21    26 3
  1750     3    25 2
  1751     5    24 2
  1752     3    26 2
  1753     5    26 3
  1754     3    26 3
  1755    21    29 1
  1756     3    27 2
  1757     3    28 2
  1758     3    28 3
  1759     3    29 2
  1760     3    29 3
  1761     3    30 1
  1762    16    26 3
  1763    15    21 2
  1764    16    27 3
  1765    14    19 3
  1766    16    28 3
  1767    15    21 3
  1768    15    22 1
  1769    14    25 1
  1770    15    26 2
  1771    14    27 1
  1772    15    28 1
  1773    14    30 1
  1774    15    29 2
  1775    15    29 3
