@<TRIPOS>MOLECULE
ligand.mol2
   31    0    1    0    0
SMALL
NO_CHARGES



@<TRIPOS>ATOM
    1 O5'      -15.5772    0.6005    0.7701     O.3    1  UVC1  0.0000
    2 C5'        0.0918    0.7442    0.6881     C.3    1  UVC1  0.0000
    3 C4'      -14.0041    1.0938   -0.5590     C.3    1  UVC1  0.0000
    4 O4'        0.7132    0.6318    0.5203     O.3    1  UVC1  0.0000
    5 C3'        0.9161    0.3708    0.7320     C.3    1  UVC1  0.0000
    6 O3'        0.6384    0.7620    0.2826     O.3    1  UVC1  0.0000
    7 C2'      -11.6122    0.0821   -0.1002     C.3    1  UVC1  0.0000
    8 O2'        0.3123    0.0313    0.3915     O.3    1  UVC1  0.0000
    9 C1'      -12.1732    1.3026    0.7221     C.3    1  UVC1  0.0000
   10  N1        0.7698    0.4402    0.7491   N.pl3    1  UVC1  0.0000
   11  C2      -10.8933    0.8811    1.9691     C.2    1  UVC1  0.0000
   12  O2        0.8523    0.7980    0.1569     O.2    1  UVC1  0.0000
   13  N3        0.5479    0.7940    0.2922   N.pl3    1  UVC1  0.0000
   14  C4        0.9735    0.6092    0.7858     C.2    1  UVC1  0.0000
   15  O4        0.0413    0.9649    0.7759     O.2    1  UVC1  0.0000
   16  C5        0.4772    0.8376    0.0549     C.2    1  UVC1  0.0000
   17  C6        0.7567    0.0492    0.0050     C.2    1  UVC1  0.0000
   18   V      -11.9252   -0.5201   -2.4471     P.3    1  UVC1  0.0000
   19 O1V        0.7767    0.5601    0.3875     O.3    1  UVC1  0.0000
   20 O2V      -11.9423   -1.8732   -4.6846     O.3    1  UVC1  0.0000
   21 O3V        0.3504    0.7075    0.6431     O.3    1  UVC1  0.0000
   22  H1      -16.8795    0.4325    0.5969       H    1  UVC1  0.0000
   23 H21      -15.9844    1.8115   -1.4767       H    1  UVC1  0.0000
   24 H22        0.0131    0.1587    0.8327       H    1  UVC1  0.0000
   25  H3        0.8400    0.9727    0.6257       H    1  UVC1  0.0000
   26  H5        0.9690    0.7151    0.6540       H    1  UVC1  0.0000
   27  H7        0.9890    0.9430    0.6144       H    1  UVC1  0.0000
   28  H9        0.7332    0.5387    0.9836       H    1  UVC1  0.0000
   29 H13        0.5480    0.5199    0.0954       H    1  UVC1  0.0000
   30 H16        0.8525    0.3240    0.0987       H    1  UVC1  0.0000
   31 H17      -14.6824    0.4454    1.7913       H    1  UVC1  0.0000
@<TRIPOS>BOND
  1413     2    17 3
  1414     2    24 2
  1415     2    24 3
  1416     2    28 2
  1417     2    30 1
  1418     4    24 1
  1419     4    30 2
  1420     4    30 3
  1421     5    15 3
  1422     5    25 2
  1423     5    25 3
  1424     5    27 3
  1425     5    30 2
  1426     5    30 3
  1427     6    24 1
  1428     6    26 3
  1429     6    27 2
  1430     6    27 3
  1431     6    30 2
  1432     6    30 3
  1433     7     9 1
  1434     8    12 3
  1435     8    15 2
  1436     8    15 3
  1437     8    24 2
  1438     8    24 3
  1439     8    26 1
  1440     8    28 1
  1441     8    29 2
  1442    10    25 2
  1443    10    25 3
  1444    10    27 2
  1445    10    27 3
  1446    12    15 2
  1447    12    15 3
  1448    12    25 3
  1449    12    26 2
  1450    12    26 3
  1451    12    27 3
  1452    12    28 1
  1453    12    30 3
  1454    13    24 1
  1455    13    26 2
  1456    13    26 3
  1457    13    27 2
  1458    13    27 3
  1459    13    30 2
  1460    13    30 3
  1461    14    24 1
  1462    15    17 1
  1463    15    26 1
  1464    15    27 1
  1465    15    29 1
  1466    16    24 1
  1467    16    25 2
  1468    16    28 1
  1469    16    30 2
  1470    16    30 3
  1471    17    24 1
  1472    17    25 1
  1473    17    27 1
  1474    17    28 1
  1475    19    24 1
  1476    19    25 3
  1477    19    27 3
  1478    19    28 2
  1479    21    25 2
  1480    21    25 3
  1481    21    26 2
  1482    21    28 2
  1483    21    28 3
  1484    21    29 2
  1485    26    30 1
  1486    27    28 1
