@<TRIPOS>MOLECULE
ligand.mol2
   31    0    1    0    0
SMALL
NO_CHARGES



@<TRIPOS>ATOM
    1 O5'      -15.5772    0.6005    0.7701     O.3    1  UVC1  0.0000
    2 C5'        0.0918    0.7442    0.6881     C.3    1  UVC1  0.0000
    3 C4'      -14.0041    1.0938   -0.5590     C.3    1  UVC1  0.0000
    4 O4'        0.7132    0.6318    0.5203     O.3    1  UVC1  0.0000
    5 C3'        0.9161    0.3708    0.7320     C.3    1  UVC1  0.0000
    6 O3'        0.6384    0.7620    0.2826     O.3    1  UVC1  0.0000
    7 C2'      -11.6122    0.0821   -0.1002     C.3    1  UVC1  0.0000
    8 O2'        0.3123    0.0313    0.3915     O.3    1  UVC1  0.0000
    9 C1'      -12.1732    1.3026    0.7221     C.3    1  UVC1  0.0000
   10  N1        0.7698    0.4402    0.7491   N.pl3    1  UVC1  0.0000
   11  C2      -10.8933    0.8811    1.9691     C.2    1  UVC1  0.0000
   12  O2        0.8523    0.7980    0.1569     O.2    1  UVC1  0.0000
   13  N3        0.5479    0.7940    0.2922   N.pl3    1  UVC1  0.0000
   14  C4        0.9735    0.6092    0.7858     C.2    1  UVC1  0.0000
   15  O4        0.0413    0.9649    0.7759     O.2    1  UVC1  0.0000
   16  C5        0.4772    0.8376    0.0549     C.2    1  UVC1  0.0000
   17  C6        0.7567    0.0492    0.0050     C.2    1  UVC1  0.0000
   18   V      -11.9252   -0.5201   -2.4471     P.3    1  UVC1  0.0000
   19 O1V        0.7767    0.5601    0.3875     O.3    1  UVC1  0.0000
   20 O2V      -11.9423   -1.8732   -4.6846     O.3    1  UVC1  0.0000
   21 O3V        0.3504    0.7075    0.6431     O.3    1  UVC1  0.0000
   22  H1      -16.8795    0.4325    0.5969       H    1  UVC1  0.0000
   23 H21      -15.9844    1.8115   -1.4767       H    1  UVC1  0.0000
   24 H22        0.0131    0.1587    0.8327       H    1  UVC1  0.0000
   25  H3        0.3378    0.6606    0.1356       H    1  UVC1  0.0000
   26  H5        0.9690    0.7151    0.6540       H    1  UVC1  0.0000
   27  H7        0.9890    0.9430    0.6144       H    1  UVC1  0.0000
   28  H9        0.7332    0.5387    0.9836       H    1  UVC1  0.0000
   29 H13        0.5480    0.5199    0.0954       H    1  UVC1  0.0000
   30 H16        0.0193    0.8538    0.9123       H    1  UVC1  0.0000
   31 H17      -14.6824    0.4454    1.7913       H    1  UVC1  0.0000
@<TRIPOS>BOND
  1285     2    17 3
  1286     2    24 2
  1287     2    24 3
  1288     2    25 2
  1289     2    25 3
  1290     2    28 2
  1291     4    24 1
  1292     4    25 2
  1293     4    25 3
  1294     5    15 3
  1295     5    27 3
  1296     5    30 1
  1297     6    24 1
  1298     6    26 3
  1299     6    27 2
  1300     6    27 3
  1301     6    30 1
  1302     7     9 1
  1303     8    12 3
  1304     8    15 2
  1305     8    15 3
  1306     8    24 2
  1307     8    24 3
  1308     8    26 1
  1309     8    28 1
  1310     8    29 2
  1311     8    30 1
  1312    10    27 2
  1313    10    27 3
  1314    12    15 2
  1315    12    15 3
  1316    12    25 2
  1317    12    25 3
  1318    12    26 2
  1319    12    26 3
  1320    12    27 3
  1321    12    28 1
  1322    13    24 1
  1323    13    26 2
  1324    13    26 3
  1325    13    27 2
  1326    13    27 3
  1327    14    24 1
  1328    14    30 1
  1329    15    17 1
  1330    15    26 1
  1331    15    27 1
  1332    15    29 1
  1333    16    24 1
  1334    16    28 1
  1335    16    30 1
  1336    17    24 1
  1337    17    27 1
  1338    17    28 1
  1339    19    24 1
  1340    19    25 2
  1341    19    25 3
  1342    19    27 3
  1343    19    28 2
  1344    19    30 1
  1345    21    25 3
  1346    21    26 2
  1347    21    28 2
  1348    21    28 3
  1349    21    29 2
  1350    24    30 1
  1351    27    28 1
