@<TRIPOS>MOLECULE
ligand.mol2
   31    0    1    0    0
SMALL
NO_CHARGES



@<TRIPOS>ATOM
    1 O5'      -15.9137    1.3181    0.7753     O.3    1  UVC1  0.0000
    2 C5'      -15.9799    1.4879   -0.6192     C.3    1  UVC1  0.0000
    3 C4'      -14.5503    1.5811   -0.5131     C.3    1  UVC1  0.0000
    4 O4'      -14.0084    1.6122    0.6647     O.3    1  UVC1  0.0000
    5 C3'      -12.0262    1.8381    0.7776     C.3    1  UVC1  0.0000
    6 O3'      -13.5465   -0.5635   -1.9953     O.3    1  UVC1  0.0000
    7 C2'      -12.1415    0.8674   -0.1302     C.3    1  UVC1  0.0000
    8 O2'      -11.1540    0.3818   -1.3485     O.3    1  UVC1  0.0000
    9 C1'      -12.2585    1.4676    0.0416     C.3    1  UVC1  0.0000
   10  N1      -12.5267    1.0580    1.9269   N.pl3    1  UVC1  0.0000
   11  C2      -12.0168    2.8500   -0.4573     C.2    1  UVC1  0.0000
   12  O2      -10.1063    1.9146    1.6164     O.2    1  UVC1  0.0000
   13  N3      -10.7109    0.3355    3.7113   N.pl3    1  UVC1  0.0000
   14  C4       -8.0765   -3.1622    4.4606     C.2    1  UVC1  0.0000
   15  O4      -11.6915   -0.5973    5.5672     O.2    1  UVC1  0.0000
   16  C5      -13.0172    0.2037    3.7467     C.2    1  UVC1  0.0000
   17  C6      -13.1396    1.1265    2.6819     C.2    1  UVC1  0.0000
   18   V      -11.0772   -0.1626   -3.3920     P.3    1  UVC1  0.0000
   19 O1V      -11.0207    1.1744   -4.7012     O.3    1  UVC1  0.0000
   20 O2V      -12.0783   -1.8108   -4.2847     O.3    1  UVC1  0.0000
   21 O3V      -10.6455   -1.2117   -2.3744     O.3    1  UVC1  0.0000
   22  H1      -17.7019   -3.0564   -3.0527       H    1  UVC1  0.0000
   23 H21      -24.6587    3.5607   -0.0057       H    1  UVC1  0.0000
   24 H22      -12.6153    5.0599   -3.0971       H    1  UVC1  0.0000
   25  H3      -13.4937    1.3957   -1.6474       H    1  UVC1  0.0000
   26  H5      -13.5790   -1.0742   -0.4999       H    1  UVC1  0.0000
   27  H7      -11.7076    4.2193   -2.2546       H    1  UVC1  0.0000
   28  H9      -12.8348    6.9335   -1.3294       H    1  UVC1  0.0000
   29 H13      -10.4824    0.3771    4.3265       H    1  UVC1  0.0000
   30 H16      -11.6708   -0.3769    5.5598       H    1  UVC1  0.0000
   31 H17      -14.7528    0.8543    1.7286       H    1  UVC1  0.0000
@<TRIPOS>BOND
     1     1     2 1
     2     1     2 2
     3     2     3 1
     4     2     3 2
     5     2     3 3
     6     3     4 1
     7     3     4 2
     8     3     4 3
     9     5     7 1
    10     5     7 2
    11     5     7 3
    12     5    10 1
    13     5    10 2
    14     5    11 1
    15     5    11 2
    16     7     8 1
    17     8    18 1
    18     9    11 1
    19     9    11 2
    20    10    17 3
    21    13    29 2
    22    16    17 1
    23    16    17 2
    24    16    17 3
    25    18    19 1
    26    18    19 2
    27    18    19 3
    28    18    20 1
    29    18    21 2
    30    18    21 3
