@<TRIPOS>MOLECULE
ligand.mol2
   31    0    1    0    0
SMALL
NO_CHARGES



@<TRIPOS>ATOM
    1 O5'      -15.9137    1.3181    0.7753     O.3    1  UVC1  0.0000
    2 C5'      -15.9432    1.2430   -0.7558     C.3    1  UVC1  0.0000
    3 C4'      -14.5503    1.5811   -0.5131     C.3    1  UVC1  0.0000
    4 O4'      -14.0084    1.6122    0.6647     O.3    1  UVC1  0.0000
    5 C3'      -13.1979    0.0852   -0.7117     C.3    1  UVC1  0.0000
    6 O3'      -13.6475   -0.4769   -2.6349     O.3    1  UVC1  0.0000
    7 C2'      -12.3573    0.0578   -0.5206     C.3    1  UVC1  0.0000
    8 O2'      -10.9852    1.1902   -1.8794     O.3    1  UVC1  0.0000
    9 C1'      -12.3127    2.0097    0.7113     C.3    1  UVC1  0.0000
   10  N1      -12.3215    1.5437    2.1559   N.pl3    1  UVC1  0.0000
   11  C2      -11.0124    1.5224    2.2590     C.2    1  UVC1  0.0000
   12  O2      -10.1063    1.9146    1.6164     O.2    1  UVC1  0.0000
   13  N3      -11.6683    0.9972    3.7103   N.pl3    1  UVC1  0.0000
   14  C4      -12.5825   -0.0488    4.2153     C.2    1  UVC1  0.0000
   15  O4      -12.2773   -0.5127    5.2869     O.2    1  UVC1  0.0000
   16  C5      -13.8387    0.2460    3.7756     C.2    1  UVC1  0.0000
   17  C6      -13.5798    0.4443    2.0523     C.2    1  UVC1  0.0000
   18   V      -11.0772   -0.1626   -3.3920     P.3    1  UVC1  0.0000
   19 O1V      -11.0207    1.1744   -4.7012     O.3    1  UVC1  0.0000
   20 O2V      -12.0783   -1.8108   -4.2847     O.3    1  UVC1  0.0000
   21 O3V      -10.6455   -1.2117   -2.3744     O.3    1  UVC1  0.0000
   22  H1      -16.2901    0.2702    0.6832       H    1  UVC1  0.0000
   23 H21      -20.7886    7.1690   -3.0722       H    1  UVC1  0.0000
   24 H22      -12.6153    5.0599   -3.0971       H    1  UVC1  0.0000
   25  H3      -13.4937    1.3957   -1.6474       H    1  UVC1  0.0000
   26  H5      -10.7336   -3.1290    1.4226       H    1  UVC1  0.0000
   27  H7      -11.7076    4.2193   -2.2546       H    1  UVC1  0.0000
   28  H9      -12.8348    6.9335   -1.3294       H    1  UVC1  0.0000
   29 H13      -10.4824    0.3771    4.3265       H    1  UVC1  0.0000
   30 H16      -14.7407    2.2904    5.6978       H    1  UVC1  0.0000
   31 H17      -14.7528    0.8543    1.7286       H    1  UVC1  0.0000
@<TRIPOS>BOND
     1     1     2 1
     2     1    22 1
     3     2     3 1
     4     2     3 2
     5     3     4 1
     6     3     4 2
     7     3     4 3
     8     8    18 1
     9     9    10 1
    10     9    10 2
    11    10    11 1
    12    10    11 2
    13    10    11 3
    14    10    17 1
    15    11    12 1
    16    11    12 2
    17    11    12 3
    18    11    13 1
    19    13    14 1
    20    13    14 2
    21    14    15 1
    22    14    15 2
    23    14    15 3
    24    14    16 1
    25    14    16 2
    26    14    16 3
    27    16    17 1
    28    18    19 1
    29    18    19 2
    30    18    19 3
    31    18    20 1
    32    18    21 2
    33    18    21 3
