@<TRIPOS>MOLECULE
ligand.mol2
   31    0    1    0    0
SMALL
NO_CHARGES



@<TRIPOS>ATOM
    1 O5'  0.1867  0.0043  0.3549   O.3    1  UVC1  0.0000
    2 C5'  0.8352  0.1561  0.3829   C.3    1  UVC1  0.0000
    3 C4'  0.6475  0.9768  0.3165   C.3    1  UVC1  0.0000
    4 O4'-13.5003  2.2889  0.1637   O.3    1  UVC1  0.0000
    5 C3'  0.0980  0.4059  0.7860   C.3    1  UVC1  0.0000
    6 O3'-13.4788 -0.2914 -2.2808   O.3    1  UVC1  0.0000
    7 C2'  0.1316  0.5963  0.4742   C.3    1  UVC1  0.0000
    8 O2'  0.5214  0.3492  0.2404   O.3    1  UVC1  0.0000
    9 C1'  0.8930  0.3579  0.2149   C.3    1  UVC1  0.0000
   10  N1-12.6725  1.0773  2.2454 N.pl3    1  UVC1  0.0000
   11  C2-11.3791  1.1692  2.8326   C.2    1  UVC1  0.0000
   12  O2-10.0426  1.9270  2.2040   O.2    1  UVC1  0.0000
   13  N3-11.1856  0.7769  3.8373 N.pl3    1  UVC1  0.0000
   14  C4  0.7049  0.5393  0.0353   C.2    1  UVC1  0.0000
   15  O4  0.2026  0.7212  0.8618   O.2    1  UVC1  0.0000
   16  C5  0.8993  0.5550  0.8634   C.2    1  UVC1  0.0000
   17  C6-13.2369  0.7703  2.6044   C.2    1  UVC1  0.0000
   18   V-11.3814 -0.3339 -3.2033   P.3    1  UVC1  0.0000
   19 O1V  0.1543  0.9717  0.8794   O.3    1  UVC1  0.0000
   20 O2V  0.4383  0.5857  0.2545   O.3    1  UVC1  0.0000
   21 O3V  0.9207  0.3955  0.1442   O.3    1  UVC1  0.0000
   22  H1  0.7951  0.0505  0.8011     H    1  UVC1  0.0000
   23 H21-16.2864  1.7683 -0.7494     H    1  UVC1  0.0000
   24 H22  0.4680  0.6152  0.2221     H    1  UVC1  0.0000
   25  H3-13.8979  1.8863 -1.7445     H    1  UVC1  0.0000
   26  H5  0.5434  0.3939  0.4730     H    1  UVC1  0.0000
   27  H7  0.3469  0.7576  0.9492     H    1  UVC1  0.0000
   28  H9  0.8756  0.4010  0.3164     H    1  UVC1  0.0000
   29 H13  0.7624  0.8635  0.8993     H    1  UVC1  0.0000
   30 H16  0.3265  0.0462  0.9469     H    1  UVC1  0.0000
   31 H17-14.6769  1.2456  1.9386     H    1  UVC1  0.0000
@<TRIPOS>BOND
  1652     1     3 3
  1653    11    13 3
  1654     1    16 3
  1655    10    11 1
  1656     1    19 2
  1657     1    19 3
  1658     7    27 3
  1659    16    26 3
  1660     8    19 3
  1661     9    19 2
  1662    16    27 3
  1663     8    29 1
  1664     9    19 3
  1665    15    21 2
  1666    16    28 3
  1667    15    21 3
  1668     9    22 2
  1669    20    28 3
  1670    15    22 1
  1671     9    27 1
  1672    15    26 2
  1673     9    30 1
  1674    15    28 1
  1675    15    29 2
  1676    15    29 3
  1677    20    30 1
  1678    26    27 1
  1679     5    21 3
  1680    19    21 1
  1681     5    24 2
  1682    19    21 2
  1683     5    26 3
  1684    19    29 2
  1685    19    30 1
  1686     1    26 2
  1687     1    26 3
  1688     1    27 1
  1689     1    30 2
  1690    21    24 3
  1691    22    28 1
  1692    21    26 3
  1693    14    19 3
  1694    21    29 1
  1695    14    27 1
  1696     2    19 2
  1697    14    30 1
  1698     2    19 3
  1699     3    22 1
  1700    26    29 1
  1701    26    30 1
  1702     2    24 2
  1703     2    24 3
  1704     3    26 2
  1705     3    26 3
  1706     3    27 2
  1707     3    28 2
  1708     3    28 3
  1709     3    29 2
  1710     3    29 3
  1711     3    30 1
