@<TRIPOS>MOLECULE
ligand.mol2
   31    0    1    0    0
SMALL
NO_CHARGES



@<TRIPOS>ATOM
    1 O5'      -15.9137    1.3181    0.7753     O.3    1  UVC1  0.0000
    2 C5'      -15.9750    1.1647   -1.3045     C.3    1  UVC1  0.0000
    3 C4'      -13.7307    1.4373   -0.4997     C.3    1  UVC1  0.0000
    4 O4'      -14.0084    1.6122    0.6647     O.3    1  UVC1  0.0000
    5 C3'      -13.1979    0.0852   -0.7117     C.3    1  UVC1  0.0000
    6 O3'      -12.9032   -0.4632   -2.1685     O.3    1  UVC1  0.0000
    7 C2'      -11.6269    0.5958   -0.1158     C.3    1  UVC1  0.0000
    8 O2'      -15.7141    5.4898    0.9701     O.3    1  UVC1  0.0000
    9 C1'      -12.6466    1.4699    0.2234     C.3    1  UVC1  0.0000
   10  N1      -12.5267    1.0580    1.9269   N.pl3    1  UVC1  0.0000
   11  C2      -12.0168    2.8500   -0.4573     C.2    1  UVC1  0.0000
   12  O2      -10.3505    1.7780    1.8485     O.2    1  UVC1  0.0000
   13  N3      -10.7109    0.3355    3.7113   N.pl3    1  UVC1  0.0000
   14  C4       -8.0765   -3.1622    4.4606     C.2    1  UVC1  0.0000
   15  O4      -14.5584    2.2241    2.9716     O.2    1  UVC1  0.0000
   16  C5      -13.0172    0.2037    3.7467     C.2    1  UVC1  0.0000
   17  C6      -13.5798    0.4443    2.0523     C.2    1  UVC1  0.0000
   18   V      -11.0772   -0.1626   -3.3920     P.3    1  UVC1  0.0000
   19 O1V      -11.0207    1.1744   -4.7012     O.3    1  UVC1  0.0000
   20 O2V      -12.4890   -1.1884   -4.4143     O.3    1  UVC1  0.0000
   21 O3V      -10.5920   -1.8600   -3.0865     O.3    1  UVC1  0.0000
   22  H1      -13.9844   -1.8386    5.1574       H    1  UVC1  0.0000
   23 H21      -20.7886    7.1690   -3.0722       H    1  UVC1  0.0000
   24 H22       -9.1540    7.4749   -0.7763       H    1  UVC1  0.0000
   25  H3       -9.3056    5.6493   -2.8693       H    1  UVC1  0.0000
   26  H5       -9.9365   -4.9884    0.1412       H    1  UVC1  0.0000
   27  H7       -7.8126    4.3740    2.0975       H    1  UVC1  0.0000
   28  H9      -12.8348    6.9335   -1.3294       H    1  UVC1  0.0000
   29 H13       -7.3440    3.5110    6.0434       H    1  UVC1  0.0000
   30 H16      -14.0235    0.4186    4.2054       H    1  UVC1  0.0000
   31 H17      -14.7528    0.8543    1.7286       H    1  UVC1  0.0000
@<TRIPOS>BOND
     1     3     4 1
     2     3     4 2
     3     3     4 3
     4     3     5 1
     5     3     5 2
     6     3     9 1
     7     3     9 2
     8     3     9 3
     9     4     9 1
    10     4     9 2
    11     5     6 1
    12     5     7 1
    13     5     9 1
    14     6    18 1
    15     7     9 1
    16     7     9 2
    17     7     9 3
    18     9    11 1
    19    10    17 1
    20    10    17 2
    21    10    17 3
    22    16    30 1
    23    18    19 1
    24    18    19 2
    25    18    19 3
    26    18    20 1
    27    18    20 2
    28    18    21 1
    29    18    21 2
    30    18    21 3
