@<TRIPOS>MOLECULE
ligand.mol2
   31    0    1    0    0
SMALL
NO_CHARGES



@<TRIPOS>ATOM
    1 O5'      -15.9137    1.3181    0.7753     O.3    1  UVC1  0.0000
    2 C5'      -15.9750    1.1647   -1.3045     C.3    1  UVC1  0.0000
    3 C4'      -13.7307    1.4373   -0.4997     C.3    1  UVC1  0.0000
    4 O4'      -14.0084    1.6122    0.6647     O.3    1  UVC1  0.0000
    5 C3'      -13.1979    0.0852   -0.7117     C.3    1  UVC1  0.0000
    6 O3'      -13.9519   -4.7106   -5.1561     O.3    1  UVC1  0.0000
    7 C2'      -11.6269    0.5958   -0.1158     C.3    1  UVC1  0.0000
    8 O2'      -11.1540    0.3818   -1.3485     O.3    1  UVC1  0.0000
    9 C1'      -12.2585    1.4676    0.0416     C.3    1  UVC1  0.0000
   10  N1      -12.6213    1.5600    1.5297   N.pl3    1  UVC1  0.0000
   11  C2      -11.1868    1.5177    2.0704     C.2    1  UVC1  0.0000
   12  O2      -10.3505    1.7780    1.8485     O.2    1  UVC1  0.0000
   13  N3      -11.6683    0.9972    3.7103   N.pl3    1  UVC1  0.0000
   14  C4       -8.0765   -3.1622    4.4606     C.2    1  UVC1  0.0000
   15  O4      -11.6915   -0.5973    5.5672     O.2    1  UVC1  0.0000
   16  C5      -13.0172    0.2037    3.7467     C.2    1  UVC1  0.0000
   17  C6      -13.5798    0.4443    2.0523     C.2    1  UVC1  0.0000
   18   V      -11.0772   -0.1626   -3.3920     P.3    1  UVC1  0.0000
   19 O1V      -11.0053    0.2972   -4.1316     O.3    1  UVC1  0.0000
   20 O2V      -12.4890   -1.1884   -4.4143     O.3    1  UVC1  0.0000
   21 O3V      -10.5920   -1.8600   -3.0865     O.3    1  UVC1  0.0000
   22  H1      -13.9844   -1.8386    5.1574       H    1  UVC1  0.0000
   23 H21      -25.7101   11.3329   -1.9692       H    1  UVC1  0.0000
   24 H22       -9.1540    7.4749   -0.7763       H    1  UVC1  0.0000
   25  H3       -9.3056    5.6493   -2.8693       H    1  UVC1  0.0000
   26  H5       -9.9365   -4.9884    0.1412       H    1  UVC1  0.0000
   27  H7      -11.7076    4.2193   -2.2546       H    1  UVC1  0.0000
   28  H9      -12.8348    6.9335   -1.3294       H    1  UVC1  0.0000
   29 H13       -7.3440    3.5110    6.0434       H    1  UVC1  0.0000
   30 H16      -14.0235    0.4186    4.2054       H    1  UVC1  0.0000
   31 H17      -14.7528    0.8543    1.7286       H    1  UVC1  0.0000
@<TRIPOS>BOND
     1     3     4 1
     2     3     4 2
     3     3     4 3
     4     3     5 1
     5     3     5 2
     6     3     9 1
     7     3     9 2
     8     5     7 1
     9     7     8 1
    10     7     8 2
    11     7     8 3
    12     7     9 2
    13     7     9 3
    14     8    18 1
    15     9    10 1
    16    10    11 1
    17    10    17 1
    18    13    16 1
    19    16    30 1
    20    18    20 1
    21    18    20 2
    22    18    21 1
    23    18    21 2
    24    18    21 3
