@<TRIPOS>MOLECULE
ligand.mol2
   31    0    1    0    0
SMALL
NO_CHARGES



@<TRIPOS>ATOM
    1 O5'  0.1867  0.0043  0.3549   O.3    1  UVC1  0.0000
    2 C5'  0.8352  0.1561  0.3829   C.3    1  UVC1  0.0000
    3 C4'-14.4685  0.9512 -1.1836   C.3    1  UVC1  0.0000
    4 O4'-13.5003  2.2889  0.1637   O.3    1  UVC1  0.0000
    5 C3'-12.9904 -0.1303 -0.6347   C.3    1  UVC1  0.0000
    6 O3'-13.4788 -0.2914 -2.2808   O.3    1  UVC1  0.0000
    7 C2'-11.7775  0.4242 -0.8521   C.3    1  UVC1  0.0000
    8 O2'  0.8738  0.8052  0.4838   O.3    1  UVC1  0.0000
    9 C1'  0.8930  0.3579  0.2149   C.3    1  UVC1  0.0000
   10  N1-12.6725  1.0773  2.2454 N.pl3    1  UVC1  0.0000
   11  C2-11.3791  1.1692  2.8326   C.2    1  UVC1  0.0000
   12  O2-10.0426  1.9270  2.2040   O.2    1  UVC1  0.0000
   13  N3-11.1856  0.7769  3.8373 N.pl3    1  UVC1  0.0000
   14  C4-12.5018  0.2415  4.3667   C.2    1  UVC1  0.0000
   15  O4  0.2026  0.7212  0.8618   O.2    1  UVC1  0.0000
   16  C5  0.4048  0.4525  0.9030   C.2    1  UVC1  0.0000
   17  C6-13.2369  0.7703  2.6044   C.2    1  UVC1  0.0000
   18   V-11.3814 -0.3339 -3.2033   P.3    1  UVC1  0.0000
   19 O1V  0.1543  0.9717  0.8794   O.3    1  UVC1  0.0000
   20 O2V  0.4383  0.5857  0.2545   O.3    1  UVC1  0.0000
   21 O3V-10.6875 -1.5338 -2.5768   O.3    1  UVC1  0.0000
   22  H1  0.7951  0.0505  0.8011     H    1  UVC1  0.0000
   23 H21  0.7501  0.6445  0.0842     H    1  UVC1  0.0000
   24 H22  0.4680  0.6152  0.2221     H    1  UVC1  0.0000
   25  H3-13.8979  1.8863 -1.7445     H    1  UVC1  0.0000
   26  H5-14.1397 -1.1383 -0.5356     H    1  UVC1  0.0000
   27  H7  0.9084  0.1737  0.6123     H    1  UVC1  0.0000
   28  H9  0.8756  0.4010  0.3164     H    1  UVC1  0.0000
   29 H13  0.4930  0.1169  0.9897     H    1  UVC1  0.0000
   30 H16-14.3165  0.3417  3.9384     H    1  UVC1  0.0000
   31 H17-14.6769  1.2456  1.9386     H    1  UVC1  0.0000
@<TRIPOS>BOND
   581     1     8 2
   582    19    29 1
   583     1     8 3
   584     2    19 2
   585     1    19 2
   586     2    19 3
   587     1    19 3
   588     2    23 3
   589     1    23 1
   590     2    24 2
   591     2    24 3
   592     5     7 1
   593    11    13 3
   594    10    11 1
   595     5     7 2
   596     9    19 2
   597     9    19 3
   598     9    22 2
   599    20    28 3
   600    13    14 1
   601    20    29 1
   602     2    29 2
   603    18    21 2
   604    18    21 3
   605     8    24 2
   606    22    28 1
   607     8    24 3
   608    16    22 3
   609    15    22 1
   610    15    23 1
   611    16    24 2
   612    15    27 1
   613    16    27 2
   614    15    28 1
   615    16    27 3
   616     8    29 1
