@<TRIPOS>MOLECULE
ligand.mol2
   31    0    1    0    0
SMALL
NO_CHARGES



@<TRIPOS>ATOM
    1 O5'      -15.6027    0.9899    0.2513     O.3    1  UVC1  0.0000
    2 C5'      -15.7741    1.1143   -0.8936     C.3    1  UVC1  0.0000
    3 C4'      -14.1831    1.2047   -1.0208     C.3    1  UVC1  0.0000
    4 O4'      -14.1644    2.4012    0.3025     O.3    1  UVC1  0.0000
    5 C3'      -13.6382    0.1475   -0.6785     C.3    1  UVC1  0.0000
    6 O3'      -13.6475   -0.4769   -2.6349     O.3    1  UVC1  0.0000
    7 C2'      -12.3573    0.0578   -0.5206     C.3    1  UVC1  0.0000
    8 O2'      -11.1540    0.3818   -1.3485     O.3    1  UVC1  0.0000
    9 C1'      -12.6466    1.4699    0.2234     C.3    1  UVC1  0.0000
   10  N1      -12.4433    0.8075    1.4839   N.pl3    1  UVC1  0.0000
   11  C2      -11.0124    1.5224    2.2590     C.2    1  UVC1  0.0000
   12  O2      -10.1063    1.9146    1.6164     O.2    1  UVC1  0.0000
   13  N3      -11.6368    1.1323    3.8151   N.pl3    1  UVC1  0.0000
   14  C4      -12.5640    0.0788    4.5405     C.2    1  UVC1  0.0000
   15  O4       -8.0158    2.4144    5.5427     O.2    1  UVC1  0.0000
   16  C5      -13.7758    0.4839    3.9172     C.2    1  UVC1  0.0000
   17  C6      -12.9882    1.1828    2.9142     C.2    1  UVC1  0.0000
   18   V      -11.6323    0.1258   -2.8635     P.3    1  UVC1  0.0000
   19 O1V      -11.4674    0.7947   -4.2735     O.3    1  UVC1  0.0000
   20 O2V      -12.4890   -1.1884   -4.4143     O.3    1  UVC1  0.0000
   21 O3V      -10.6455   -1.2117   -2.3744     O.3    1  UVC1  0.0000
   22  H1      -16.2901    0.2702    0.6832       H    1  UVC1  0.0000
   23 H21      -16.2866    2.4976   -1.4557       H    1  UVC1  0.0000
   24 H22      -16.0792    0.8372   -1.1117       H    1  UVC1  0.0000
   25  H3      -15.2659   -0.2176   -6.2371       H    1  UVC1  0.0000
   26  H5      -13.5790   -1.0742   -0.4999       H    1  UVC1  0.0000
   27  H7      -11.7076    4.2193   -2.2546       H    1  UVC1  0.0000
   28  H9      -11.2622    2.6715    0.4051       H    1  UVC1  0.0000
   29 H13      -10.4824    0.3771    4.3265       H    1  UVC1  0.0000
   30 H16      -14.0235    0.4186    4.2054       H    1  UVC1  0.0000
   31 H17      -14.7528    0.8543    1.7286       H    1  UVC1  0.0000
@<TRIPOS>BOND
     1     1     2 1
     2     1     2 2
     3     1     2 3
     4     1    22 1
     5     2     3 1
     6     2     3 2
     7     3     5 1
     8     3     5 2
     9     3     5 3
    10     5     7 1
    11     5     7 2
    12     5     7 3
    13     5    26 1
    14     6    18 1
    15     7     8 1
    16     7     9 1
    17     7    18 1
    18     8    18 1
    19     8    18 2
    20     8    18 3
    21     9    10 1
    22     9    10 2
    23    10    17 1
    24    11    12 1
    25    11    12 2
    26    11    12 3
    27    11    13 1
    28    13    14 1
    29    13    17 1
    30    14    16 1
    31    14    16 2
    32    14    16 3
    33    16    17 1
    34    16    17 2
    35    18    19 2
    36    18    19 3
    37    18    20 1
    38    18    21 1
    39    18    21 2
    40    18    21 3
