@<TRIPOS>MOLECULE
ligand.mol2
   31    0    1    0    0
SMALL
NO_CHARGES



@<TRIPOS>ATOM
    1 O5'      -16.1319    0.4576    0.1322     O.3    1  UVC1  0.0000
    2 C5'      -15.8709    1.5746   -1.1058     C.3    1  UVC1  0.0000
    3 C4'      -14.4278    1.1630   -0.9487     C.3    1  UVC1  0.0000
    4 O4'      -13.7556    1.6684    0.5257     O.3    1  UVC1  0.0000
    5 C3'      -13.4434    0.1033   -0.9657     C.3    1  UVC1  0.0000
    6 O3'      -12.9032   -0.4632   -2.1685     O.3    1  UVC1  0.0000
    7 C2'      -11.6269    0.5958   -0.1158     C.3    1  UVC1  0.0000
    8 O2'      -10.9852    1.1902   -1.8794     O.3    1  UVC1  0.0000
    9 C1'      -12.6053    2.1168    0.8459     C.3    1  UVC1  0.0000
   10  N1      -12.4433    0.8075    1.4839   N.pl3    1  UVC1  0.0000
   11  C2      -11.0124    1.5224    2.2590     C.2    1  UVC1  0.0000
   12  O2      -10.1063    1.9146    1.6164     O.2    1  UVC1  0.0000
   13  N3      -10.9902    0.9645    3.3122   N.pl3    1  UVC1  0.0000
   14  C4      -12.5986    0.8081    4.2097     C.2    1  UVC1  0.0000
   15  O4      -12.6256   -0.0602    6.0511     O.2    1  UVC1  0.0000
   16  C5      -13.8387    0.2460    3.7756     C.2    1  UVC1  0.0000
   17  C6      -13.1396    1.1265    2.6819     C.2    1  UVC1  0.0000
   18   V      -11.4736   -0.3753   -2.7890     P.3    1  UVC1  0.0000
   19 O1V      -11.3564    1.0533   -4.6754     O.3    1  UVC1  0.0000
   20 O2V      -12.0783   -1.8108   -4.2847     O.3    1  UVC1  0.0000
   21 O3V      -10.5920   -1.8600   -3.0865     O.3    1  UVC1  0.0000
   22  H1      -16.2901    0.2702    0.6832       H    1  UVC1  0.0000
   23 H21      -16.2866    2.4976   -1.4557       H    1  UVC1  0.0000
   24 H22      -16.1951    0.8571   -0.9588       H    1  UVC1  0.0000
   25  H3      -13.4937    1.3957   -1.6474       H    1  UVC1  0.0000
   26  H5      -13.5790   -1.0742   -0.4999       H    1  UVC1  0.0000
   27  H7      -11.7076    4.2193   -2.2546       H    1  UVC1  0.0000
   28  H9      -11.2622    2.6715    0.4051       H    1  UVC1  0.0000
   29 H13      -10.4824    0.3771    4.3265       H    1  UVC1  0.0000
   30 H16      -14.0235    0.4186    4.2054       H    1  UVC1  0.0000
   31 H17      -14.7528    0.8543    1.7286       H    1  UVC1  0.0000
@<TRIPOS>BOND
     1     1    22 2
     2     1    22 3
     3     2     3 1
     4     2     3 2
     5     2    23 1
     6     2    24 2
     7     3     5 1
     8     3     5 2
     9     3    25 1
    10     4     9 1
    11     4     9 2
    12     4     9 3
    13     5     6 1
    14     5     6 2
    15     5    26 1
    16     6    18 2
    17     6    18 3
    18     8    18 1
    19     8    18 2
    20     8    18 3
    21     9    10 1
    22     9    10 2
    23    10    17 1
    24    10    17 2
    25    11    12 1
    26    11    12 2
    27    11    12 3
    28    11    13 1
    29    11    13 2
    30    11    13 3
    31    14    16 1
    32    14    16 2
    33    14    16 3
    34    14    17 1
    35    16    17 1
    36    16    17 2
    37    16    30 3
    38    18    20 1
    39    18    21 1
    40    18    21 2
    41    18    21 3
