@<TRIPOS>MOLECULE
ligand.mol2
   31    0    1    0    0
SMALL
NO_CHARGES



@<TRIPOS>ATOM
    1 O5'  0.1867  0.0043  0.3549   O.3    1  UVC1  0.0000
    2 C5'  0.8352  0.1561  0.3829   C.3    1  UVC1  0.0000
    3 C4'  0.6475  0.9768  0.3165   C.3    1  UVC1  0.0000
    4 O4'-13.5003  2.2889  0.1637   O.3    1  UVC1  0.0000
    5 C3'  0.0701  0.9071  0.0557   C.3    1  UVC1  0.0000
    6 O3'-13.4788 -0.2914 -2.2808   O.3    1  UVC1  0.0000
    7 C2'  0.1316  0.5963  0.4742   C.3    1  UVC1  0.0000
    8 O2'  0.5214  0.3492  0.2404   O.3    1  UVC1  0.0000
    9 C1'  0.8930  0.3579  0.2149   C.3    1  UVC1  0.0000
   10  N1-12.6725  1.0773  2.2454 N.pl3    1  UVC1  0.0000
   11  C2-11.3791  1.1692  2.8326   C.2    1  UVC1  0.0000
   12  O2-10.0426  1.9270  2.2040   O.2    1  UVC1  0.0000
   13  N3-11.1856  0.7769  3.8373 N.pl3    1  UVC1  0.0000
   14  C4  0.7049  0.5393  0.0353   C.2    1  UVC1  0.0000
   15  O4  0.2026  0.7212  0.8618   O.2    1  UVC1  0.0000
   16  C5  0.8993  0.5550  0.8634   C.2    1  UVC1  0.0000
   17  C6-13.2369  0.7703  2.6044   C.2    1  UVC1  0.0000
   18   V-11.3814 -0.3339 -3.2033   P.3    1  UVC1  0.0000
   19 O1V  0.1543  0.9717  0.8794   O.3    1  UVC1  0.0000
   20 O2V  0.4383  0.5857  0.2545   O.3    1  UVC1  0.0000
   21 O3V  0.9207  0.3955  0.1442   O.3    1  UVC1  0.0000
   22  H1  0.7951  0.0505  0.8011     H    1  UVC1  0.0000
   23 H21  0.8265  0.8797  0.2881     H    1  UVC1  0.0000
   24 H22  0.4680  0.6152  0.2221     H    1  UVC1  0.0000
   25  H3-13.8979  1.8863 -1.7445     H    1  UVC1  0.0000
   26  H5-14.1397 -1.1383 -0.5356     H    1  UVC1  0.0000
   27  H7  0.9084  0.1737  0.6123     H    1  UVC1  0.0000
   28  H9  0.8756  0.4010  0.3164     H    1  UVC1  0.0000
   29 H13  0.4930  0.1169  0.9897     H    1  UVC1  0.0000
   30 H16  0.3265  0.0462  0.9469     H    1  UVC1  0.0000
   31 H17-14.6769  1.2456  1.9386     H    1  UVC1  0.0000
@<TRIPOS>BOND
  1152     1     3 3
  1153    19    21 1
  1154     1    16 3
  1155    19    21 2
  1156     1    19 2
  1157     1    19 3
  1158    19    23 1
  1159     1    30 2
  1160    19    29 1
  1161    19    30 1
  1162     2     5 3
  1163    21    23 2
  1164    21    23 3
  1165     2    19 2
  1166    21    24 3
  1167     2    19 3
  1168    21    27 2
  1169    21    27 3
  1170     2    23 2
  1171    20    23 3
  1172     2    24 2
  1173     2    24 3
  1174    21    29 1
  1175    20    28 3
  1176     2    29 2
  1177    20    29 1
  1178    20    30 1
  1179    14    19 3
  1180    10    11 1
  1181    11    13 3
  1182    14    27 2
  1183    14    29 1
  1184    14    30 1
  1185    27    30 1
  1186     9    19 2
  1187     3    22 1
  1188     9    19 3
  1189     3    28 2
  1190    22    28 1
  1191    16    23 2
  1192     3    28 3
  1193     9    22 2
  1194     3    29 1
  1195     9    30 1
  1196     3    30 1
  1197     5    16 2
  1198     5    16 3
  1199    16    28 3
  1200    16    29 2
  1201    16    29 3
  1202     8    19 3
  1203    15    21 2
  1204     8    23 2
  1205     5    28 1
  1206    15    21 3
  1207    15    22 1
  1208     8    27 2
  1209     8    27 3
  1210    15    23 1
  1211    15    27 1
  1212    15    28 1
