@<TRIPOS>MOLECULE
ligand.mol2
   31    0    1    0    0
SMALL
NO_CHARGES



@<TRIPOS>ATOM
    1 O5'      -15.9137    1.3181    0.7753     O.3    1  UVC1  0.0000
    2 C5'      -15.9750    1.1647   -1.3045     C.3    1  UVC1  0.0000
    3 C4'      -13.7307    1.4373   -0.4997     C.3    1  UVC1  0.0000
    4 O4'      -14.0084    1.6122    0.6647     O.3    1  UVC1  0.0000
    5 C3'      -13.1979    0.0852   -0.7117     C.3    1  UVC1  0.0000
    6 O3'      -12.9032   -0.4632   -2.1685     O.3    1  UVC1  0.0000
    7 C2'      -11.6269    0.5958   -0.1158     C.3    1  UVC1  0.0000
    8 O2'      -15.7141    5.4898    0.9701     O.3    1  UVC1  0.0000
    9 C1'      -12.2585    1.4676    0.0416     C.3    1  UVC1  0.0000
   10  N1      -12.6213    1.5600    1.5297   N.pl3    1  UVC1  0.0000
   11  C2      -12.0168    2.8500   -0.4573     C.2    1  UVC1  0.0000
   12  O2       -5.6550    2.8271    0.5234     O.2    1  UVC1  0.0000
   13  N3      -10.7109    0.3355    3.7113   N.pl3    1  UVC1  0.0000
   14  C4       -8.0765   -3.1622    4.4606     C.2    1  UVC1  0.0000
   15  O4      -11.6915   -0.5973    5.5672     O.2    1  UVC1  0.0000
   16  C5       -9.7986   -0.9682    0.8276     C.2    1  UVC1  0.0000
   17  C6       -9.3344   -4.2174    4.9145     C.2    1  UVC1  0.0000
   18   V      -11.0772   -0.1626   -3.3920     P.3    1  UVC1  0.0000
   19 O1V      -13.6488    2.2191   -6.8129     O.3    1  UVC1  0.0000
   20 O2V      -12.4890   -1.1884   -4.4143     O.3    1  UVC1  0.0000
   21 O3V      -10.5920   -1.8600   -3.0865     O.3    1  UVC1  0.0000
   22  H1      -13.9844   -1.8386    5.1574       H    1  UVC1  0.0000
   23 H21      -20.7886    7.1690   -3.0722       H    1  UVC1  0.0000
   24 H22       -9.1540    7.4749   -0.7763       H    1  UVC1  0.0000
   25  H3       -7.7823    6.5952   -0.9576       H    1  UVC1  0.0000
   26  H5       -9.9365   -4.9884    0.1412       H    1  UVC1  0.0000
   27  H7       -7.8126    4.3740    2.0975       H    1  UVC1  0.0000
   28  H9      -12.8348    6.9335   -1.3294       H    1  UVC1  0.0000
   29 H13       -7.3440    3.5110    6.0434       H    1  UVC1  0.0000
   30 H16      -12.9498   -0.9151    6.2034       H    1  UVC1  0.0000
   31 H17      -14.7528    0.8543    1.7286       H    1  UVC1  0.0000
