@<TRIPOS>MOLECULE
ligand.mol2
   31    0    1    0    0
SMALL
NO_CHARGES



@<TRIPOS>ATOM
    1 O5'      -15.5772    0.6005    0.7701     O.3    1  UVC1  0.0000
    2 C5'        0.0918    0.7442    0.6881     C.3    1  UVC1  0.0000
    3 C4'      -14.0041    1.0938   -0.5590     C.3    1  UVC1  0.0000
    4 O4'        0.7132    0.6318    0.5203     O.3    1  UVC1  0.0000
    5 C3'        0.9161    0.3708    0.7320     C.3    1  UVC1  0.0000
    6 O3'        0.6384    0.7620    0.2826     O.3    1  UVC1  0.0000
    7 C2'      -11.6122    0.0821   -0.1002     C.3    1  UVC1  0.0000
    8 O2'        0.3123    0.0313    0.3915     O.3    1  UVC1  0.0000
    9 C1'      -12.1732    1.3026    0.7221     C.3    1  UVC1  0.0000
   10  N1        0.7698    0.4402    0.7491   N.pl3    1  UVC1  0.0000
   11  C2      -10.8933    0.8811    1.9691     C.2    1  UVC1  0.0000
   12  O2        0.1696    0.5254    0.6273     O.2    1  UVC1  0.0000
   13  N3        0.5479    0.7940    0.2922   N.pl3    1  UVC1  0.0000
   14  C4        0.9735    0.6092    0.7858     C.2    1  UVC1  0.0000
   15  O4        0.0413    0.9649    0.7759     O.2    1  UVC1  0.0000
   16  C5        0.4772    0.8376    0.0549     C.2    1  UVC1  0.0000
   17  C6        0.7567    0.0492    0.0050     C.2    1  UVC1  0.0000
   18   V        0.8537    0.7468    0.9186     P.3    1  UVC1  0.0000
   19 O1V        0.7767    0.5601    0.3875     O.3    1  UVC1  0.0000
   20 O2V      -11.9423   -1.8732   -4.6846     O.3    1  UVC1  0.0000
   21 O3V        0.3504    0.7075    0.6431     O.3    1  UVC1  0.0000
   22  H1      -16.8795    0.4325    0.5969       H    1  UVC1  0.0000
   23 H21      -15.9844    1.8115   -1.4767       H    1  UVC1  0.0000
   24 H22        0.0131    0.1587    0.8327       H    1  UVC1  0.0000
   25  H3        0.8400    0.9727    0.6257       H    1  UVC1  0.0000
   26  H5        0.9690    0.7151    0.6540       H    1  UVC1  0.0000
   27  H7        0.9890    0.9430    0.6144       H    1  UVC1  0.0000
   28  H9        0.7332    0.5387    0.9836       H    1  UVC1  0.0000
   29 H13        0.5480    0.5199    0.0954       H    1  UVC1  0.0000
   30 H16        0.8525    0.3240    0.0987       H    1  UVC1  0.0000
   31 H17      -14.6824    0.4454    1.7913       H    1  UVC1  0.0000
@<TRIPOS>BOND
  1704     2    17 3
  1705     2    24 2
  1706     2    24 3
  1707     2    28 2
  1708     2    30 1
  1709     4    24 1
  1710     4    30 2
  1711     4    30 3
  1712     5    15 3
  1713     5    25 2
  1714     5    25 3
  1715     5    27 3
  1716     5    30 2
  1717     5    30 3
  1718     6    24 1
  1719     6    26 3
  1720     6    27 2
  1721     6    27 3
  1722     6    30 2
  1723     6    30 3
  1724     7     9 1
  1725     8    15 2
  1726     8    15 3
  1727     8    24 2
  1728     8    24 3
  1729     8    26 1
  1730     8    28 1
  1731     8    29 2
  1732    10    25 2
  1733    10    25 3
  1734    10    27 2
  1735    10    27 3
  1736    12    27 1
  1737    12    30 1
  1738    13    24 1
  1739    13    26 2
  1740    13    26 3
  1741    13    27 2
  1742    13    27 3
  1743    13    30 2
  1744    13    30 3
  1745    14    24 1
  1746    15    17 1
  1747    15    26 1
  1748    15    27 1
  1749    15    29 1
  1750    16    24 1
  1751    16    25 2
  1752    16    28 1
  1753    16    30 2
  1754    16    30 3
  1755    17    24 1
  1756    17    25 1
  1757    17    27 1
  1758    17    28 1
  1759    18    24 2
  1760    18    24 3
  1761    19    24 1
  1762    19    25 3
  1763    19    27 3
  1764    19    28 2
  1765    21    25 2
  1766    21    25 3
  1767    21    26 2
  1768    21    28 2
  1769    21    28 3
  1770    21    29 2
  1771    26    30 1
  1772    27    28 1
