@<TRIPOS>MOLECULE
ligand.mol2
   31    0    1    0    0
SMALL
NO_CHARGES



@<TRIPOS>ATOM
    1 O5'  0.1867  0.0043  0.3549   O.3    1  UVC1  0.0000
    2 C5'  0.8352  0.1561  0.3829   C.3    1  UVC1  0.0000
    3 C4'  0.6475  0.9768  0.3165   C.3    1  UVC1  0.0000
    4 O4'-13.5003  2.2889  0.1637   O.3    1  UVC1  0.0000
    5 C3'  0.0701  0.9071  0.0557   C.3    1  UVC1  0.0000
    6 O3'-13.4788 -0.2914 -2.2808   O.3    1  UVC1  0.0000
    7 C2'  0.1316  0.5963  0.4742   C.3    1  UVC1  0.0000
    8 O2'  0.5214  0.3492  0.2404   O.3    1  UVC1  0.0000
    9 C1'  0.8930  0.3579  0.2149   C.3    1  UVC1  0.0000
   10  N1-12.6725  1.0773  2.2454 N.pl3    1  UVC1  0.0000
   11  C2-11.3791  1.1692  2.8326   C.2    1  UVC1  0.0000
   12  O2-10.0426  1.9270  2.2040   O.2    1  UVC1  0.0000
   13  N3-11.1856  0.7769  3.8373 N.pl3    1  UVC1  0.0000
   14  C4  0.7049  0.5393  0.0353   C.2    1  UVC1  0.0000
   15  O4  0.2026  0.7212  0.8618   O.2    1  UVC1  0.0000
   16  C5  0.8993  0.5550  0.8634   C.2    1  UVC1  0.0000
   17  C6-13.2369  0.7703  2.6044   C.2    1  UVC1  0.0000
   18   V-11.3814 -0.3339 -3.2033   P.3    1  UVC1  0.0000
   19 O1V  0.1543  0.9717  0.8794   O.3    1  UVC1  0.0000
   20 O2V  0.4383  0.5857  0.2545   O.3    1  UVC1  0.0000
   21 O3V  0.9207  0.3955  0.1442   O.3    1  UVC1  0.0000
   22  H1  0.7951  0.0505  0.8011     H    1  UVC1  0.0000
   23 H21-16.2864  1.7683 -0.7494     H    1  UVC1  0.0000
   24 H22  0.4680  0.6152  0.2221     H    1  UVC1  0.0000
   25  H3-13.8979  1.8863 -1.7445     H    1  UVC1  0.0000
   26  H5  0.7867  0.9323  0.2200     H    1  UVC1  0.0000
   27  H7  0.9898  0.8392  0.1859     H    1  UVC1  0.0000
   28  H9  0.8756  0.4010  0.3164     H    1  UVC1  0.0000
   29 H13  0.4930  0.1169  0.9897     H    1  UVC1  0.0000
   30 H16  0.3265  0.0462  0.9469     H    1  UVC1  0.0000
   31 H17-14.6769  1.2456  1.9386     H    1  UVC1  0.0000
@<TRIPOS>BOND
  1478     1     3 3
  1479    16    28 3
  1480     1    16 3
  1481    16    29 2
  1482    16    29 3
  1483     1    19 2
  1484     1    19 3
  1485     2     5 3
  1486     1    30 2
  1487     2    19 2
  1488     2    19 3
  1489    10    11 1
  1490    11    13 3
  1491    21    24 3
  1492    20    26 3
  1493    21    26 2
  1494    21    26 3
  1495    20    27 2
  1496    21    29 1
  1497    19    21 1
  1498    20    28 3
  1499    19    21 2
  1500    20    29 1
  1501     8    19 3
  1502    19    26 1
  1503    20    30 1
  1504    19    29 1
  1505    19    30 1
  1506     3    22 1
  1507     9    19 2
  1508     3    28 2
  1509     9    19 3
  1510    14    19 3
  1511    15    21 2
  1512    14    29 1
  1513     5    16 2
  1514     3    28 3
  1515     5    16 3
  1516     3    29 1
  1517     5    26 2
  1518     9    22 2
  1519     3    30 1
  1520     9    26 3
  1521     5    28 1
  1522     9    30 1
  1523    15    21 3
  1524    15    22 1
  1525    14    30 1
  1526    22    28 1
  1527    15    26 1
  1528    15    27 1
  1529    15    28 1
  1530     2    24 2
  1531     2    24 3
  1532     2    27 2
  1533     2    29 2
