@<TRIPOS>MOLECULE
ligand.mol2
   31    0    1    0    0
SMALL
NO_CHARGES



@<TRIPOS>ATOM
    1 O5'      -15.6027    0.9899    0.2513     O.3    1  UVC1  0.0000
    2 C5'      -15.7741    1.1143   -0.8936     C.3    1  UVC1  0.0000
    3 C4'      -13.7746    1.5569   -1.2645     C.3    1  UVC1  0.0000
    4 O4'      -13.3379    2.0028    0.1725     O.3    1  UVC1  0.0000
    5 C3'      -13.4271   -0.5078   -1.0177     C.3    1  UVC1  0.0000
    6 O3'      -13.6475   -0.4769   -2.6349     O.3    1  UVC1  0.0000
    7 C2'      -12.3573    0.0578   -0.5206     C.3    1  UVC1  0.0000
    8 O2'      -11.1540    0.3818   -1.3485     O.3    1  UVC1  0.0000
    9 C1'      -12.2585    1.4676    0.0416     C.3    1  UVC1  0.0000
   10  N1      -12.6213    1.5600    1.5297   N.pl3    1  UVC1  0.0000
   11  C2      -11.0046    1.5536    2.9456     C.2    1  UVC1  0.0000
   12  O2      -10.3505    1.7780    1.8485     O.2    1  UVC1  0.0000
   13  N3      -10.7109    0.3355    3.7113   N.pl3    1  UVC1  0.0000
   14  C4      -12.5640    0.0788    4.5405     C.2    1  UVC1  0.0000
   15  O4      -11.6915   -0.5973    5.5672     O.2    1  UVC1  0.0000
   16  C5      -13.0172    0.2037    3.7467     C.2    1  UVC1  0.0000
   17  C6      -13.8410    0.6359    2.5204     C.2    1  UVC1  0.0000
   18   V      -11.9127   -0.0884   -2.6429     P.3    1  UVC1  0.0000
   19 O1V      -11.4674    0.7947   -4.2735     O.3    1  UVC1  0.0000
   20 O2V      -12.0783   -1.8108   -4.2847     O.3    1  UVC1  0.0000
   21 O3V      -10.5920   -1.8600   -3.0865     O.3    1  UVC1  0.0000
   22  H1      -16.2901    0.2702    0.6832       H    1  UVC1  0.0000
   23 H21      -16.2866    2.4976   -1.4557       H    1  UVC1  0.0000
   24 H22      -16.1951    0.8571   -0.9588       H    1  UVC1  0.0000
   25  H3      -13.4937    1.3957   -1.6474       H    1  UVC1  0.0000
   26  H5      -13.5790   -1.0742   -0.4999       H    1  UVC1  0.0000
   27  H7      -11.7076    4.2193   -2.2546       H    1  UVC1  0.0000
   28  H9      -11.2622    2.6715    0.4051       H    1  UVC1  0.0000
   29 H13      -10.4824    0.3771    4.3265       H    1  UVC1  0.0000
   30 H16      -14.0235    0.4186    4.2054       H    1  UVC1  0.0000
   31 H17      -14.7528    0.8543    1.7286       H    1  UVC1  0.0000
@<TRIPOS>BOND
     1     1     2 1
     2     1     2 2
     3     1     2 3
     4     1    22 1
     5     2    24 3
     6     3     4 1
     7     3    25 3
     8     4     9 1
     9     4     9 2
    10     4     9 3
    11     4    10 1
    12     5     6 1
    13     5     7 1
    14     5     7 2
    15     5     7 3
    16     5    18 1
    17     5    26 2
    18     6    18 1
    19     6    18 2
    20     6    18 3
    21     7     8 1
    22     7     9 1
    23     7     9 2
    24     7    18 1
    25     8    18 2
    26     8    18 3
    27     9    10 1
    28    11    12 1
    29    11    12 2
    30    11    12 3
    31    11    13 1
    32    11    13 2
    33    13    29 2
    34    14    15 1
    35    16    17 1
    36    16    17 2
    37    16    30 1
    38    17    31 1
    39    18    19 1
    40    18    19 2
    41    18    19 3
    42    18    21 1
