@<TRIPOS>MOLECULE
ligand.mol2
   31    0    1    0    0
SMALL
NO_CHARGES



@<TRIPOS>ATOM
    1 O5'      -15.9137    1.3181    0.7753     O.3    1  UVC1  0.0000
    2 C5'      -15.9750    1.1647   -1.3045     C.3    1  UVC1  0.0000
    3 C4'      -14.5503    1.5811   -0.5131     C.3    1  UVC1  0.0000
    4 O4'      -13.7556    1.6684    0.5257     O.3    1  UVC1  0.0000
    5 C3'      -13.9840    2.2568    3.6012     C.3    1  UVC1  0.0000
    6 O3'      -13.5170   -0.5759   -2.6692     O.3    1  UVC1  0.0000
    7 C2'      -11.7288    0.1863   -0.6767     C.3    1  UVC1  0.0000
    8 O2'      -11.5106    0.4833   -1.5490     O.3    1  UVC1  0.0000
    9 C1'      -12.2585    1.4676    0.0416     C.3    1  UVC1  0.0000
   10  N1      -12.5267    1.0580    1.9269   N.pl3    1  UVC1  0.0000
   11  C2      -12.0168    2.8500   -0.4573     C.2    1  UVC1  0.0000
   12  O2      -10.2228    1.5938    1.9315     O.2    1  UVC1  0.0000
   13  N3      -11.6683    0.9972    3.7103   N.pl3    1  UVC1  0.0000
   14  C4      -12.5825   -0.0488    4.2153     C.2    1  UVC1  0.0000
   15  O4      -11.6915   -0.5973    5.5672     O.2    1  UVC1  0.0000
   16  C5      -13.0172    0.2037    3.7467     C.2    1  UVC1  0.0000
   17  C6      -13.5798    0.4443    2.0523     C.2    1  UVC1  0.0000
   18   V      -11.0772   -0.1626   -3.3920     P.3    1  UVC1  0.0000
   19 O1V      -11.0207    1.1744   -4.7012     O.3    1  UVC1  0.0000
   20 O2V      -12.0783   -1.8108   -4.2847     O.3    1  UVC1  0.0000
   21 O3V      -10.5920   -1.8600   -3.0865     O.3    1  UVC1  0.0000
   22  H1      -16.2901    0.2702    0.6832       H    1  UVC1  0.0000
   23 H21      -20.7886    7.1690   -3.0722       H    1  UVC1  0.0000
   24 H22      -12.6153    5.0599   -3.0971       H    1  UVC1  0.0000
   25  H3      -13.4937    1.3957   -1.6474       H    1  UVC1  0.0000
   26  H5       -9.9365   -4.9884    0.1412       H    1  UVC1  0.0000
   27  H7      -11.7076    4.2193   -2.2546       H    1  UVC1  0.0000
   28  H9      -12.8348    6.9335   -1.3294       H    1  UVC1  0.0000
   29 H13      -10.4824    0.3771    4.3265       H    1  UVC1  0.0000
   30 H16      -11.6742    2.6258    1.4870       H    1  UVC1  0.0000
   31 H17      -14.7528    0.8543    1.7286       H    1  UVC1  0.0000
@<TRIPOS>BOND
     1     1    22 1
     2     2     3 1
     3     3     4 1
     4     3     4 2
     5     3     4 3
     6     4     9 1
     7     7     8 3
     8     7     9 1
     9     7     9 2
    10     8    18 1
    11     8    18 2
    12     9    11 1
    13     9    11 2
    14    10    17 1
    15    10    17 2
    16    10    17 3
    17    13    14 1
    18    13    14 2
    19    13    16 1
    20    18    19 1
    21    18    19 2
    22    18    19 3
    23    18    20 1
    24    18    21 1
    25    18    21 2
    26    18    21 3
